
  Mrv1812 02121911042D          

 39 39  0  0  0  0            999 V2000
    1.5499    1.5841    0.0000 C   0  0  0  0  0  0  0  0  0  0  0  0
    1.5499    0.7591    0.0000 C   0  0  0  0  0  0  0  0  0  0  0  0
    2.2644    0.3466    0.0000 C   0  0  0  0  0  0  0  0  0  0  0  0
    2.9789    0.7591    0.0000 C   0  0  0  0  0  0  0  0  0  0  0  0
    3.6933    0.3466    0.0000 C   0  0  0  0  0  0  0  0  0  0  0  0
    4.4078    0.7591    0.0000 O   0  0  0  0  0  0  0  0  0  0  0  0
    0.8355    0.3466    0.0000 C   0  0  0  0  0  0  0  0  0  0  0  0
    0.1210    0.7591    0.0000 C   0  0  0  0  0  0  0  0  0  0  0  0
   -0.5935    0.3466    0.0000 C   0  0  0  0  0  0  0  0  0  0  0  0
   -0.5935   -0.4784    0.0000 C   0  0  0  0  0  0  0  0  0  0  0  0
    0.1210   -0.8909    0.0000 C   0  0  0  0  0  0  0  0  0  0  0  0
    0.8355   -0.4784    0.0000 C   0  0  0  0  0  0  0  0  0  0  0  0
    1.1176   -1.2537    0.0000 C   0  0  0  0  0  0  0  0  0  0  0  0
    1.6479   -0.3352    0.0000 C   0  0  0  0  0  0  0  0  0  0  0  0
    0.1210    1.5841    0.0000 C   0  0  0  0  0  0  0  0  0  0  0  0
    2.3749    1.5841    0.0000 H   0  0  0  0  0  0  0  0  0  0  0  0
    1.5499    2.4091    0.0000 H   0  0  0  0  0  0  0  0  0  0  0  0
    0.7249    1.5841    0.0000 H   0  0  0  0  0  0  0  0  0  0  0  0
    2.2644    1.1716    0.0000 H   0  0  0  0  0  0  0  0  0  0  0  0
    2.4348   -0.4606    0.0000 H   0  0  0  0  0  0  0  0  0  0  0  0
    3.0178    0.0105    0.0000 H   0  0  0  0  0  0  0  0  0  0  0  0
    3.6109    1.2894    0.0000 H   0  0  0  0  0  0  0  0  0  0  0  0
    3.1221    1.5715    0.0000 H   0  0  0  0  0  0  0  0  0  0  0  0
    4.0835   -0.3803    0.0000 H   0  0  0  0  0  0  0  0  0  0  0  0
    0.8355    1.1716    0.0000 H   0  0  0  0  0  0  0  0  0  0  0  0
   -1.3079    0.7591    0.0000 H   0  0  0  0  0  0  0  0  0  0  0  0
   -1.4171   -0.5264    0.0000 H   0  0  0  0  0  0  0  0  0  0  0  0
   -1.0468   -1.1677    0.0000 H   0  0  0  0  0  0  0  0  0  0  0  0
   -0.2493   -1.6282    0.0000 H   0  0  0  0  0  0  0  0  0  0  0  0
    0.4913   -1.6282    0.0000 H   0  0  0  0  0  0  0  0  0  0  0  0
    1.1989   -2.0746    0.0000 H   0  0  0  0  0  0  0  0  0  0  0  0
    1.8950   -1.5299    0.0000 H   0  0  0  0  0  0  0  0  0  0  0  0
    1.6988   -0.6681    0.0000 H   0  0  0  0  0  0  0  0  0  0  0  0
    1.5724    0.4864    0.0000 H   0  0  0  0  0  0  0  0  0  0  0  0
    0.9923    0.1656    0.0000 H   0  0  0  0  0  0  0  0  0  0  0  0
    1.1670   -1.0055    0.0000 H   0  0  0  0  0  0  0  0  0  0  0  0
    0.4367    2.3463    0.0000 H   0  0  0  0  0  0  0  0  0  0  0  0
   -0.4624    2.1674    0.0000 H   0  0  0  0  0  0  0  0  0  0  0  0
   -0.6412    1.2684    0.0000 H   0  0  0  0  0  0  0  0  0  0  0  0
  1  2  1  0  0  0  0
  2  3  1  0  0  0  0
  3  4  1  0  0  0  0
  4  5  1  0  0  0  0
  5  6  2  0  0  0  0
  2  7  1  0  0  0  0
  8  7  1  0  0  0  0
  9  8  2  0  0  0  0
 10  9  1  0  0  0  0
 11 10  1  0  0  0  0
 12 11  1  0  0  0  0
 12 13  1  0  0  0  0
 12 14  1  0  0  0  0
  8 15  1  0  0  0  0
  7 12  1  0  0  0  0
  1 16  1  0  0  0  0
  1 17  1  0  0  0  0
  1 18  1  0  0  0  0
  2 19  1  0  0  0  0
  3 20  1  0  0  0  0
  3 21  1  0  0  0  0
  4 22  1  0  0  0  0
  4 23  1  0  0  0  0
  5 24  1  0  0  0  0
  7 25  1  0  0  0  0
  9 26  1  0  0  0  0
 10 27  1  0  0  0  0
 10 28  1  0  0  0  0
 11 29  1  0  0  0  0
 11 30  1  0  0  0  0
 13 31  1  0  0  0  0
 13 32  1  0  0  0  0
 13 33  1  0  0  0  0
 14 34  1  0  0  0  0
 14 35  1  0  0  0  0
 14 36  1  0  0  0  0
 15 37  1  0  0  0  0
 15 38  1  0  0  0  0
 15 39  1  0  0  0  0
M  END
>  <id_input>
951

>  <InChIKey>
ACVNYUMGXUDACR-UHFFFAOYSA-N

>  <substance_name>
-

>  <casrn>
65405-84-7

>  <Molecular weight>
208.3397674560547

>  <guideline>
OECD Guideline 404 (Acute Dermal Irritation / Corrosion)

>  <species>
rabbit

>  <type_of_coverage>
semiocclusive

>  <max_duration(hrs)>
4.0

>  <vehicle>
unchanged (no vehicle)

>  <edema/ erythema score>
2.33333333333333

>  <max_score>
4.0

>  <reversibility>
0.0

>  <Outcome>
1

>  <StandardizerResult>
Remove Explicit Hydrogens (ID: RemoveExplicitH)
Clear Stereo (ID: ClearStereo)
Wedge Clean (ID: WedgeClean)
Mesomerize (ID: Mesomerize)
Tautomerize (ID: Tautomerize)
Add Explicit Hydrogens (ID: AddExplicitH)
Neutralize (ID: Neutralize)
Clean 2D (ID: Clean2D)


$$$$

  Mrv1812 02121911042D          

 16 17  0  0  0  0            999 V2000
   -2.1155   -0.6958    0.0000 O   0  0  0  0  0  0  0  0  0  0  0  0
   -1.2905   -0.6958    0.0000 C   0  0  0  0  0  0  0  0  0  0  0  0
   -0.8056   -0.0284    0.0000 C   0  0  0  0  0  0  0  0  0  0  0  0
   -0.0210   -0.2833    0.0000 C   0  0  0  0  0  0  0  0  0  0  0  0
    0.6935    0.1292    0.0000 C   0  0  0  0  0  0  0  0  0  0  0  0
    1.4079   -0.2833    0.0000 C   0  0  0  0  0  0  0  0  0  0  0  0
    1.4079   -1.1083    0.0000 C   0  0  0  0  0  0  0  0  0  0  0  0
    0.6935   -1.5208    0.0000 C   0  0  0  0  0  0  0  0  0  0  0  0
   -0.0210   -1.1083    0.0000 C   0  0  0  0  0  0  0  0  0  0  0  0
   -0.8056   -1.3633    0.0000 O   0  0  0  0  0  0  0  0  0  0  0  0
   -0.6624    0.7841    0.0000 H   0  0  0  0  0  0  0  0  0  0  0  0
   -1.3991    0.5447    0.0000 H   0  0  0  0  0  0  0  0  0  0  0  0
    0.6935    0.9542    0.0000 H   0  0  0  0  0  0  0  0  0  0  0  0
    2.1224    0.1292    0.0000 H   0  0  0  0  0  0  0  0  0  0  0  0
    2.1224   -1.5208    0.0000 H   0  0  0  0  0  0  0  0  0  0  0  0
    0.6935   -2.3458    0.0000 H   0  0  0  0  0  0  0  0  0  0  0  0
  1  2  2  0  0  0  0
  3  2  1  0  0  0  0
  4  3  1  0  0  0  0
  4  5  4  0  0  0  0
  5  6  4  0  0  0  0
  6  7  4  0  0  0  0
  7  8  4  0  0  0  0
  8  9  4  0  0  0  0
 10  9  1  0  0  0  0
  2 10  1  0  0  0  0
  9  4  4  0  0  0  0
  3 11  1  0  0  0  0
  3 12  1  0  0  0  0
  5 13  1  0  0  0  0
  6 14  1  0  0  0  0
  7 15  1  0  0  0  0
  8 16  1  0  0  0  0
M  END
>  <id_input>
1887

>  <InChIKey>
ACZGCWSMSTYWDQ-UHFFFAOYSA-N

>  <substance_name>
1-benzofuran-2(3H)-one

>  <casrn>
553-86-6

>  <Molecular weight>
134.13204956054688

>  <guideline>
OECD Guideline 404 (Acute Dermal Irritation / Corrosion)

>  <species>
rabbit

>  <type_of_coverage>
semiocclusive

>  <max_duration(hrs)>
4.0

>  <vehicle>
water

>  <edema/ erythema score>
2.23333333333333

>  <reversibility>
0.0

>  <Outcome>
1

>  <StandardizerResult>
Remove Explicit Hydrogens (ID: RemoveExplicitH)
Dearomatize (ID: Dearomatize)
Clear Stereo (ID: ClearStereo)
Wedge Clean (ID: WedgeClean)
Mesomerize (ID: Mesomerize)
Tautomerize (ID: Tautomerize)
Aromatize (ID: Aromatize)
Add Explicit Hydrogens (ID: AddExplicitH)
Neutralize (ID: Neutralize)
Clean 2D (ID: Clean2D)


$$$$

  Mrv1812 02121911042D          

 14 14  0  0  0  0            999 V2000
    1.3090    1.2727    0.0000 Cl  0  0  0  0  0  0  0  0  0  0  0  0
    0.5945    0.8602    0.0000 C   0  0  0  0  0  0  0  0  0  0  0  0
   -0.1199    1.2727    0.0000 C   0  0  0  0  0  0  0  0  0  0  0  0
   -0.8344    0.8602    0.0000 C   0  0  0  0  0  0  0  0  0  0  0  0
   -0.8344    0.0352    0.0000 C   0  0  0  0  0  0  0  0  0  0  0  0
   -0.1199   -0.3773    0.0000 C   0  0  0  0  0  0  0  0  0  0  0  0
    0.5945    0.0352    0.0000 C   0  0  0  0  0  0  0  0  0  0  0  0
   -1.5489   -0.3773    0.0000 N   0  0  0  0  0  0  0  0  0  0  0  0
   -1.5489   -1.2023    0.0000 C   0  0  0  0  0  0  0  0  0  0  0  0
   -1.5489   -2.0273    0.0000 O   0  0  0  0  0  0  0  0  0  0  0  0
   -0.1199    2.0977    0.0000 H   0  0  0  0  0  0  0  0  0  0  0  0
   -1.5489    1.2727    0.0000 H   0  0  0  0  0  0  0  0  0  0  0  0
   -0.1199   -1.2023    0.0000 H   0  0  0  0  0  0  0  0  0  0  0  0
    1.3090   -0.3773    0.0000 H   0  0  0  0  0  0  0  0  0  0  0  0
  1  2  1  0  0  0  0
  3  2  4  0  0  0  0
  4  3  4  0  0  0  0
  5  4  4  0  0  0  0
  6  5  4  0  0  0  0
  7  6  4  0  0  0  0
  8  5  1  4  0  0  0
  8  9  2  0  0  0  0
  9 10  2  0  0  0  0
  2  7  4  0  0  0  0
  3 11  1  0  0  0  0
  4 12  1  0  0  0  0
  6 13  1  0  0  0  0
  7 14  1  0  0  0  0
M  END
>  <id_input>
1921

>  <InChIKey>
ADAKRBAJFHTIEW-UHFFFAOYSA-N

>  <substance_name>
1-chloro-4-isocyanatobenzene

>  <casrn>
104-12-1

>  <Molecular weight>
153.56576538085938

>  <guideline>
OECD Guideline 404 (Acute Dermal Irritation / Corrosion)

>  <species>
rabbit

>  <type_of_coverage>
semiocclusive

>  <max_duration(hrs)>
4.0

>  <vehicle>
unchanged (no vehicle)

>  <edema/ erythema score>
2.79

>  <max_score>
4.0

>  <reversibility>
1.0

>  <Outcome>
1

>  <StandardizerResult>
Remove Explicit Hydrogens (ID: RemoveExplicitH)
Dearomatize (ID: Dearomatize)
Clear Stereo (ID: ClearStereo)
Wedge Clean (ID: WedgeClean)
Mesomerize (ID: Mesomerize)
Tautomerize (ID: Tautomerize)
Aromatize (ID: Aromatize)
Add Explicit Hydrogens (ID: AddExplicitH)
Neutralize (ID: Neutralize)
Clean 2D (ID: Clean2D)


$$$$

  Mrv1812 02121911042D          

 23 22  0  0  0  0            999 V2000
   -0.8901    1.8471    0.0000 C   0  0  0  0  0  0  0  0  0  0  0  0
   -0.1756    1.4346    0.0000 C   0  0  0  0  0  0  0  0  0  0  0  0
   -0.1756    0.6096    0.0000 C   0  0  0  0  0  0  0  0  0  0  0  0
    0.5389    1.8471    0.0000 C   0  0  0  0  0  0  0  0  0  0  0  0
    1.2534    1.4346    0.0000 O   0  0  0  0  0  0  0  0  0  0  0  0
    1.9678    1.8471    0.0000 C   0  0  0  0  0  0  0  0  0  0  0  0
    1.9678    2.6721    0.0000 O   0  0  0  0  0  0  0  0  0  0  0  0
    2.6823    1.4346    0.0000 C   0  0  0  0  0  0  0  0  0  0  0  0
    3.3968    1.8471    0.0000 C   0  0  0  0  0  0  0  0  0  0  0  0
    2.6823    0.6096    0.0000 Cl  0  0  0  0  0  0  0  0  0  0  0  0
   -0.4776    2.5616    0.0000 H   0  0  0  0  0  0  0  0  0  0  0  0
   -1.6045    2.2596    0.0000 H   0  0  0  0  0  0  0  0  0  0  0  0
   -1.3026    1.1327    0.0000 H   0  0  0  0  0  0  0  0  0  0  0  0
   -0.8901    1.0221    0.0000 H   0  0  0  0  0  0  0  0  0  0  0  0
   -0.7589    0.0263    0.0000 H   0  0  0  0  0  0  0  0  0  0  0  0
    0.2369   -0.1048    0.0000 H   0  0  0  0  0  0  0  0  0  0  0  0
    0.6213    0.8232    0.0000 H   0  0  0  0  0  0  0  0  0  0  0  0
    0.9091    2.5844    0.0000 H   0  0  0  0  0  0  0  0  0  0  0  0
    0.1686    2.5844    0.0000 H   0  0  0  0  0  0  0  0  0  0  0  0
    2.6823    2.2596    0.0000 H   0  0  0  0  0  0  0  0  0  0  0  0
    3.6103    1.0503    0.0000 H   0  0  0  0  0  0  0  0  0  0  0  0
    4.2218    1.8471    0.0000 H   0  0  0  0  0  0  0  0  0  0  0  0
    3.6103    2.6440    0.0000 H   0  0  0  0  0  0  0  0  0  0  0  0
  1  2  1  0  0  0  0
  2  3  1  0  0  0  0
  2  4  1  0  0  0  0
  4  5  1  0  0  0  0
  5  6  1  0  0  0  0
  6  7  2  0  0  0  0
  6  8  1  0  0  0  0
  8  9  1  0  0  0  0
  8 10  1  0  0  0  0
  1 11  1  0  0  0  0
  1 12  1  0  0  0  0
  1 13  1  0  0  0  0
  2 14  1  0  0  0  0
  3 15  1  0  0  0  0
  3 16  1  0  0  0  0
  3 17  1  0  0  0  0
  4 18  1  0  0  0  0
  4 19  1  0  0  0  0
  8 20  1  0  0  0  0
  9 21  1  0  0  0  0
  9 22  1  0  0  0  0
  9 23  1  0  0  0  0
M  END
>  <id_input>
4500

>  <InChIKey>
AEEGJNJYJCGJFZ-UHFFFAOYSA-N

>  <substance_name>
isobutyl 2-chloropropanoate

>  <casrn>
83261-15-8

>  <Molecular weight>
164.6299285888672

>  <guideline>
OECD Guideline 404 (Acute Dermal Irritation / Corrosion)

>  <species>
rabbit

>  <type_of_coverage>
occlusive

>  <max_duration(hrs)>
4.0

>  <vehicle>
unchanged (no vehicle)

>  <edema/ erythema score>
1.56

>  <max_score>
4.0

>  <reversibility>
0.0

>  <Outcome>
1

>  <StandardizerResult>
Remove Explicit Hydrogens (ID: RemoveExplicitH)
Clear Stereo (ID: ClearStereo)
Wedge Clean (ID: WedgeClean)
Mesomerize (ID: Mesomerize)
Tautomerize (ID: Tautomerize)
Add Explicit Hydrogens (ID: AddExplicitH)
Neutralize (ID: Neutralize)
Clean 2D (ID: Clean2D)


$$$$

  Mrv1812 02121911042D          

 33 34  0  0  0  0            999 V2000
    0.9177   -0.1588    0.0000 C   0  0  0  0  0  0  0  0  0  0  0  0
    0.5052   -0.8733    0.0000 O   0  0  0  0  0  0  0  0  0  0  0  0
    0.9177   -1.5878    0.0000 Si  0  0  0  0  0  4  0  0  0  0  0  0
    1.3302   -2.3023    0.0000 O   0  0  0  0  0  0  0  0  0  0  0  0
    0.9177   -3.0167    0.0000 C   0  0  0  0  0  0  0  0  0  0  0  0
    0.2032   -2.0003    0.0000 C   0  0  0  0  0  0  0  0  0  0  0  0
   -0.5113   -1.5878    0.0000 C   0  0  0  0  0  0  0  0  0  0  0  0
   -1.2257   -2.0003    0.0000 C   0  0  0  0  0  0  0  0  0  0  0  0
   -1.2257   -2.8253    0.0000 C   0  0  0  0  0  0  0  0  0  0  0  0
   -0.5113   -3.2378    0.0000 C   0  0  0  0  0  0  0  0  0  0  0  0
    0.2032   -2.8253    0.0000 C   0  0  0  0  0  0  0  0  0  0  0  0
    1.6322   -1.1753    0.0000 C   0  0  0  0  0  0  0  0  0  0  0  0
    2.3466   -1.5878    0.0000 C   0  0  0  0  0  0  0  0  0  0  0  0
    3.0611   -1.1753    0.0000 C   0  0  0  0  0  0  0  0  0  0  0  0
    3.0611   -0.3503    0.0000 C   0  0  0  0  0  0  0  0  0  0  0  0
    2.3466    0.0622    0.0000 C   0  0  0  0  0  0  0  0  0  0  0  0
    1.6322   -0.3503    0.0000 C   0  0  0  0  0  0  0  0  0  0  0  0
    1.4617    0.4614    0.0000 H   0  0  0  0  0  0  0  0  0  0  0  0
    0.6020    0.6034    0.0000 H   0  0  0  0  0  0  0  0  0  0  0  0
    0.0945   -0.1049    0.0000 H   0  0  0  0  0  0  0  0  0  0  0  0
    0.3737   -3.6370    0.0000 H   0  0  0  0  0  0  0  0  0  0  0  0
    1.2334   -3.7789    0.0000 H   0  0  0  0  0  0  0  0  0  0  0  0
    1.7409   -3.0707    0.0000 H   0  0  0  0  0  0  0  0  0  0  0  0
   -0.5113   -0.7628    0.0000 H   0  0  0  0  0  0  0  0  0  0  0  0
   -1.9402   -1.5878    0.0000 H   0  0  0  0  0  0  0  0  0  0  0  0
   -1.9402   -3.2378    0.0000 H   0  0  0  0  0  0  0  0  0  0  0  0
   -0.5113   -4.0628    0.0000 H   0  0  0  0  0  0  0  0  0  0  0  0
   -0.5113   -2.4128    0.0000 H   0  0  0  0  0  0  0  0  0  0  0  0
    2.3466   -2.4128    0.0000 H   0  0  0  0  0  0  0  0  0  0  0  0
    3.7756   -1.5878    0.0000 H   0  0  0  0  0  0  0  0  0  0  0  0
    3.7756    0.0622    0.0000 H   0  0  0  0  0  0  0  0  0  0  0  0
    2.3466    0.8872    0.0000 H   0  0  0  0  0  0  0  0  0  0  0  0
    2.3466   -0.7628    0.0000 H   0  0  0  0  0  0  0  0  0  0  0  0
  1  2  1  0  0  0  0
  2  3  1  0  0  0  0
  3  4  1  0  0  0  0
  4  5  1  0  0  0  0
  3  6  1  0  0  0  0
  7  6  4  0  0  0  0
  8  7  4  0  0  0  0
  9  8  4  0  0  0  0
 10  9  4  0  0  0  0
 11 10  4  0  0  0  0
  3 12  1  0  0  0  0
 13 12  4  0  0  0  0
 14 13  4  0  0  0  0
 15 14  4  0  0  0  0
 16 15  4  0  0  0  0
 17 16  4  0  0  0  0
  6 11  4  0  0  0  0
 12 17  4  0  0  0  0
  1 18  1  0  0  0  0
  1 19  1  0  0  0  0
  1 20  1  0  0  0  0
  5 21  1  0  0  0  0
  5 22  1  0  0  0  0
  5 23  1  0  0  0  0
  7 24  1  0  0  0  0
  8 25  1  0  0  0  0
  9 26  1  0  0  0  0
 10 27  1  0  0  0  0
 11 28  1  0  0  0  0
 13 29  1  0  0  0  0
 14 30  1  0  0  0  0
 15 31  1  0  0  0  0
 16 32  1  0  0  0  0
 17 33  1  0  0  0  0
M  END
>  <id_input>
4174

>  <InChIKey>
AHUXYBVKTIBBJW-UHFFFAOYSA-N

>  <substance_name>
dimethoxydiphenylsilane

>  <casrn>
6843-66-9

>  <Molecular weight>
244.36114501953125

>  <guideline>
OECD Guideline 404 (Acute Dermal Irritation / Corrosion)

>  <species>
rabbit

>  <type_of_coverage>
semiocclusive

>  <max_duration(hrs)>
4.0

>  <vehicle>
unchanged (no vehicle)

>  <edema/ erythema score>
2.77666666666666

>  <max_score>
4.0

>  <reversibility>
0.0

>  <Outcome>
1

>  <StandardizerResult>
Remove Explicit Hydrogens (ID: RemoveExplicitH)
Dearomatize (ID: Dearomatize)
Clear Stereo (ID: ClearStereo)
Wedge Clean (ID: WedgeClean)
Mesomerize (ID: Mesomerize)
Tautomerize (ID: Tautomerize)
Aromatize (ID: Aromatize)
Add Explicit Hydrogens (ID: AddExplicitH)
Neutralize (ID: Neutralize)
Clean 2D (ID: Clean2D)


$$$$

  Mrv1812 02121911042D          

 38 37  0  0  0  0            999 V2000
    3.8636    2.4108    0.0000 C   0  0  0  0  0  0  0  0  0  0  0  0
    3.1491    1.9983    0.0000 C   0  0  0  0  0  0  0  0  0  0  0  0
    3.1491    1.1733    0.0000 O   0  0  0  0  0  0  0  0  0  0  0  0
    2.4347    0.7608    0.0000 Si  0  0  0  0  0  4  0  0  0  0  0  0
    1.7202    0.3483    0.0000 C   0  0  0  0  0  0  0  0  0  0  0  0
    1.0057    0.7608    0.0000 C   0  0  0  0  0  0  0  0  0  0  0  0
    0.2912    0.3483    0.0000 C   0  0  0  0  0  0  0  0  0  0  0  0
    1.0057    1.5858    0.0000 C   0  0  0  0  0  0  0  0  0  0  0  0
    2.0222    1.4752    0.0000 O   0  0  0  0  0  0  0  0  0  0  0  0
    2.4347    2.1897    0.0000 C   0  0  0  0  0  0  0  0  0  0  0  0
    2.0222    2.9042    0.0000 C   0  0  0  0  0  0  0  0  0  0  0  0
    2.8472    0.0463    0.0000 O   0  0  0  0  0  0  0  0  0  0  0  0
    2.4347   -0.6682    0.0000 C   0  0  0  0  0  0  0  0  0  0  0  0
    1.6097   -0.6682    0.0000 C   0  0  0  0  0  0  0  0  0  0  0  0
    4.2761    1.6963    0.0000 H   0  0  0  0  0  0  0  0  0  0  0  0
    4.5781    2.8233    0.0000 H   0  0  0  0  0  0  0  0  0  0  0  0
    3.4511    3.1252    0.0000 H   0  0  0  0  0  0  0  0  0  0  0  0
    3.0414    2.8162    0.0000 H   0  0  0  0  0  0  0  0  0  0  0  0
    3.8636    1.5858    0.0000 H   0  0  0  0  0  0  0  0  0  0  0  0
    1.3499   -0.3890    0.0000 H   0  0  0  0  0  0  0  0  0  0  0  0
    2.0904   -0.3890    0.0000 H   0  0  0  0  0  0  0  0  0  0  0  0
    1.0057   -0.0642    0.0000 H   0  0  0  0  0  0  0  0  0  0  0  0
    0.0777    1.1452    0.0000 H   0  0  0  0  0  0  0  0  0  0  0  0
   -0.5338    0.3483    0.0000 H   0  0  0  0  0  0  0  0  0  0  0  0
    0.0777   -0.4486    0.0000 H   0  0  0  0  0  0  0  0  0  0  0  0
    1.8307    1.5858    0.0000 H   0  0  0  0  0  0  0  0  0  0  0  0
    1.0057    2.4108    0.0000 H   0  0  0  0  0  0  0  0  0  0  0  0
    0.1807    1.5858    0.0000 H   0  0  0  0  0  0  0  0  0  0  0  0
    2.7504    1.4275    0.0000 H   0  0  0  0  0  0  0  0  0  0  0  0
    1.6167    2.2974    0.0000 H   0  0  0  0  0  0  0  0  0  0  0  0
    2.8224    3.1046    0.0000 H   0  0  0  0  0  0  0  0  0  0  0  0
    2.0491    3.7287    0.0000 H   0  0  0  0  0  0  0  0  0  0  0  0
    1.2367    3.1566    0.0000 H   0  0  0  0  0  0  0  0  0  0  0  0
    2.4826   -1.4918    0.0000 H   0  0  0  0  0  0  0  0  0  0  0  0
    3.1239   -1.1215    0.0000 H   0  0  0  0  0  0  0  0  0  0  0  0
    0.8005   -0.8291    0.0000 H   0  0  0  0  0  0  0  0  0  0  0  0
    1.2939   -1.4304    0.0000 H   0  0  0  0  0  0  0  0  0  0  0  0
    2.0680   -1.3541    0.0000 H   0  0  0  0  0  0  0  0  0  0  0  0
  1  2  1  0  0  0  0
  2  3  1  0  0  0  0
  3  4  1  0  0  0  0
  4  5  1  0  0  0  0
  5  6  1  0  0  0  0
  6  7  1  0  0  0  0
  6  8  1  0  0  0  0
  4  9  1  0  0  0  0
  9 10  1  0  0  0  0
 10 11  1  0  0  0  0
  4 12  1  0  0  0  0
 12 13  1  0  0  0  0
 13 14  1  0  0  0  0
  1 15  1  0  0  0  0
  1 16  1  0  0  0  0
  1 17  1  0  0  0  0
  2 18  1  0  0  0  0
  2 19  1  0  0  0  0
  5 20  1  0  0  0  0
  5 21  1  0  0  0  0
  6 22  1  0  0  0  0
  7 23  1  0  0  0  0
  7 24  1  0  0  0  0
  7 25  1  0  0  0  0
  8 26  1  0  0  0  0
  8 27  1  0  0  0  0
  8 28  1  0  0  0  0
 10 29  1  0  0  0  0
 10 30  1  0  0  0  0
 11 31  1  0  0  0  0
 11 32  1  0  0  0  0
 11 33  1  0  0  0  0
 13 34  1  0  0  0  0
 13 35  1  0  0  0  0
 14 36  1  0  0  0  0
 14 37  1  0  0  0  0
 14 38  1  0  0  0  0
M  END
>  <id_input>
5129

>  <InChIKey>
ALVYUZIFSCKIFP-UHFFFAOYSA-N

>  <substance_name>
triethoxy(2-methylpropyl)silane

>  <casrn>
17980-47-1

>  <Molecular weight>
220.3812713623047

>  <guideline>
OECD Guideline 404 (Acute Dermal Irritation / Corrosion)

>  <species>
rabbit

>  <type_of_coverage>
semiocclusive

>  <max_duration(hrs)>
4.0

>  <vehicle>
unchanged (no vehicle)

>  <edema/ erythema score>
1.9

>  <max_score>
4.0

>  <reversibility>
0.0

>  <Outcome>
1

>  <StandardizerResult>
Remove Explicit Hydrogens (ID: RemoveExplicitH)
Clear Stereo (ID: ClearStereo)
Wedge Clean (ID: WedgeClean)
Mesomerize (ID: Mesomerize)
Tautomerize (ID: Tautomerize)
Add Explicit Hydrogens (ID: AddExplicitH)
Neutralize (ID: Neutralize)
Clean 2D (ID: Clean2D)


$$$$

  Mrv1812 02121911042D          

 84 83  0  0  0  0            999 V2000
   -3.2700    1.8542    0.0000 C   0  0  0  0  0  0  0  0  0  0  0  0
   -3.2700    1.0292    0.0000 C   0  0  0  0  0  0  0  0  0  0  0  0
   -2.5555    0.6167    0.0000 C   0  0  0  0  0  0  0  0  0  0  0  0
   -2.5555   -0.2083    0.0000 C   0  0  0  0  0  0  0  0  0  0  0  0
   -1.8411   -0.6208    0.0000 C   0  0  0  0  0  0  0  0  0  0  0  0
   -1.8411   -1.4458    0.0000 C   0  0  0  0  0  0  0  0  0  0  0  0
   -1.1266   -1.8583    0.0000 C   0  0  0  0  0  0  0  0  0  0  0  0
   -1.1266   -2.6833    0.0000 C   0  0  0  0  0  0  0  0  0  0  0  0
   -0.4121   -3.0958    0.0000 C   0  0  0  0  0  0  0  0  0  0  0  0
   -0.4121   -3.9208    0.0000 C   0  0  0  0  0  0  0  0  0  0  0  0
    0.3023   -4.3333    0.0000 C   0  0  0  0  0  0  0  0  0  0  0  0
    1.0168   -3.9208    0.0000 C   0  0  0  0  0  0  0  0  0  0  0  0
    1.7313   -4.3333    0.0000 C   0  0  0  0  0  0  0  0  0  0  0  0
    2.4458   -3.9208    0.0000 C   0  0  0  0  0  0  0  0  0  0  0  0
    3.1602   -4.3333    0.0000 C   0  0  0  0  0  0  0  0  0  0  0  0
    3.8747   -3.9208    0.0000 C   0  0  0  0  0  0  0  0  0  0  0  0
    4.5892   -4.3333    0.0000 C   0  0  0  0  0  0  0  0  0  0  0  0
    5.3036   -3.9208    0.0000 C   0  0  0  0  0  0  0  0  0  0  0  0
    6.0181   -4.3333    0.0000 C   0  0  0  0  0  0  0  0  0  0  0  0
    6.7326   -3.9208    0.0000 C   0  0  0  0  0  0  0  0  0  0  0  0
    7.4471   -4.3333    0.0000 C   0  0  0  0  0  0  0  0  0  0  0  0
    8.1615   -3.9208    0.0000 C   0  0  0  0  0  0  0  0  0  0  0  0
    8.1615   -3.0958    0.0000 O   0  0  0  0  0  0  0  0  0  0  0  0
    8.8760   -4.3333    0.0000 N   0  0  0  0  0  0  0  0  0  0  0  0
    9.5905   -3.9208    0.0000 C   0  0  0  0  0  0  0  0  0  0  0  0
   10.3049   -4.3333    0.0000 C   0  0  0  0  0  0  0  0  0  0  0  0
   11.0194   -3.9208    0.0000 C   0  0  0  0  0  0  0  0  0  0  0  0
   11.7339   -4.3333    0.0000 N   0  0  0  0  0  0  0  0  0  0  0  0
   12.4484   -3.9208    0.0000 C   0  0  0  0  0  0  0  0  0  0  0  0
   11.7339   -5.1583    0.0000 C   0  0  0  0  0  0  0  0  0  0  0  0
   -2.4450    1.8542    0.0000 H   0  0  0  0  0  0  0  0  0  0  0  0
   -3.2700    2.6792    0.0000 H   0  0  0  0  0  0  0  0  0  0  0  0
   -4.0950    1.8542    0.0000 H   0  0  0  0  0  0  0  0  0  0  0  0
   -4.0936    0.9812    0.0000 H   0  0  0  0  0  0  0  0  0  0  0  0
   -3.7234    0.3399    0.0000 H   0  0  0  0  0  0  0  0  0  0  0  0
   -1.7319    0.6646    0.0000 H   0  0  0  0  0  0  0  0  0  0  0  0
   -2.1022    1.3059    0.0000 H   0  0  0  0  0  0  0  0  0  0  0  0
   -3.3791   -0.2563    0.0000 H   0  0  0  0  0  0  0  0  0  0  0  0
   -3.0089   -0.8976    0.0000 H   0  0  0  0  0  0  0  0  0  0  0  0
   -1.0175   -0.5729    0.0000 H   0  0  0  0  0  0  0  0  0  0  0  0
   -1.3877    0.0684    0.0000 H   0  0  0  0  0  0  0  0  0  0  0  0
   -2.6647   -1.4938    0.0000 H   0  0  0  0  0  0  0  0  0  0  0  0
   -2.2944   -2.1351    0.0000 H   0  0  0  0  0  0  0  0  0  0  0  0
   -0.3030   -1.8104    0.0000 H   0  0  0  0  0  0  0  0  0  0  0  0
   -0.6732   -1.1691    0.0000 H   0  0  0  0  0  0  0  0  0  0  0  0
   -1.9502   -2.7313    0.0000 H   0  0  0  0  0  0  0  0  0  0  0  0
   -1.5799   -3.3726    0.0000 H   0  0  0  0  0  0  0  0  0  0  0  0
    0.3023   -2.6833    0.0000 H   0  0  0  0  0  0  0  0  0  0  0  0
   -1.1266   -4.3333    0.0000 H   0  0  0  0  0  0  0  0  0  0  0  0
   -0.0679   -5.0706    0.0000 H   0  0  0  0  0  0  0  0  0  0  0  0
    0.6726   -5.0706    0.0000 H   0  0  0  0  0  0  0  0  0  0  0  0
    1.3871   -3.1836    0.0000 H   0  0  0  0  0  0  0  0  0  0  0  0
    0.6466   -3.1836    0.0000 H   0  0  0  0  0  0  0  0  0  0  0  0
    1.3610   -5.0706    0.0000 H   0  0  0  0  0  0  0  0  0  0  0  0
    2.1015   -5.0706    0.0000 H   0  0  0  0  0  0  0  0  0  0  0  0
    2.8160   -3.1836    0.0000 H   0  0  0  0  0  0  0  0  0  0  0  0
    2.0755   -3.1836    0.0000 H   0  0  0  0  0  0  0  0  0  0  0  0
    2.7900   -5.0706    0.0000 H   0  0  0  0  0  0  0  0  0  0  0  0
    3.5305   -5.0706    0.0000 H   0  0  0  0  0  0  0  0  0  0  0  0
    4.2450   -3.1836    0.0000 H   0  0  0  0  0  0  0  0  0  0  0  0
    3.5044   -3.1836    0.0000 H   0  0  0  0  0  0  0  0  0  0  0  0
    4.2189   -5.0706    0.0000 H   0  0  0  0  0  0  0  0  0  0  0  0
    4.9594   -5.0706    0.0000 H   0  0  0  0  0  0  0  0  0  0  0  0
    5.6739   -3.1836    0.0000 H   0  0  0  0  0  0  0  0  0  0  0  0
    4.9334   -3.1836    0.0000 H   0  0  0  0  0  0  0  0  0  0  0  0
    5.6479   -5.0706    0.0000 H   0  0  0  0  0  0  0  0  0  0  0  0
    6.3884   -5.0706    0.0000 H   0  0  0  0  0  0  0  0  0  0  0  0
    7.1028   -3.1836    0.0000 H   0  0  0  0  0  0  0  0  0  0  0  0
    6.3623   -3.1836    0.0000 H   0  0  0  0  0  0  0  0  0  0  0  0
    7.0768   -5.0706    0.0000 H   0  0  0  0  0  0  0  0  0  0  0  0
    7.8173   -5.0706    0.0000 H   0  0  0  0  0  0  0  0  0  0  0  0
    8.8760   -5.1583    0.0000 H   0  0  0  0  0  0  0  0  0  0  0  0
    9.9607   -3.1836    0.0000 H   0  0  0  0  0  0  0  0  0  0  0  0
    9.2202   -3.1836    0.0000 H   0  0  0  0  0  0  0  0  0  0  0  0
    9.9347   -5.0706    0.0000 H   0  0  0  0  0  0  0  0  0  0  0  0
   10.6752   -5.0706    0.0000 H   0  0  0  0  0  0  0  0  0  0  0  0
   11.3897   -3.1836    0.0000 H   0  0  0  0  0  0  0  0  0  0  0  0
   10.6492   -3.1836    0.0000 H   0  0  0  0  0  0  0  0  0  0  0  0
   12.8609   -4.6353    0.0000 H   0  0  0  0  0  0  0  0  0  0  0  0
   13.1628   -3.5083    0.0000 H   0  0  0  0  0  0  0  0  0  0  0  0
   12.0359   -3.2064    0.0000 H   0  0  0  0  0  0  0  0  0  0  0  0
   10.9089   -5.1583    0.0000 H   0  0  0  0  0  0  0  0  0  0  0  0
   11.7339   -5.9833    0.0000 H   0  0  0  0  0  0  0  0  0  0  0  0
   12.5589   -5.1583    0.0000 H   0  0  0  0  0  0  0  0  0  0  0  0
  1  2  1  0  0  0  0
  2  3  1  0  0  0  0
  3  4  1  0  0  0  0
  4  5  1  0  0  0  0
  5  6  1  0  0  0  0
  6  7  1  0  0  0  0
  7  8  1  0  0  0  0
  9  8  1  4  0  0  0
  9 10  2  0  0  0  0
 10 11  1  0  0  0  0
 11 12  1  0  0  0  0
 12 13  1  0  0  0  0
 13 14  1  0  0  0  0
 14 15  1  0  0  0  0
 15 16  1  0  0  0  0
 16 17  1  0  0  0  0
 17 18  1  0  0  0  0
 18 19  1  0  0  0  0
 19 20  1  0  0  0  0
 20 21  1  0  0  0  0
 21 22  1  0  0  0  0
 22 23  2  0  0  0  0
 22 24  1  0  0  0  0
 24 25  1  0  0  0  0
 25 26  1  0  0  0  0
 26 27  1  0  0  0  0
 27 28  1  0  0  0  0
 28 29  1  0  0  0  0
 28 30  1  0  0  0  0
  1 31  1  0  0  0  0
  1 32  1  0  0  0  0
  1 33  1  0  0  0  0
  2 34  1  0  0  0  0
  2 35  1  0  0  0  0
  3 36  1  0  0  0  0
  3 37  1  0  0  0  0
  4 38  1  0  0  0  0
  4 39  1  0  0  0  0
  5 40  1  0  0  0  0
  5 41  1  0  0  0  0
  6 42  1  0  0  0  0
  6 43  1  0  0  0  0
  7 44  1  0  0  0  0
  7 45  1  0  0  0  0
  8 46  1  0  0  0  0
  8 47  1  0  0  0  0
  9 48  1  0  0  0  0
 10 49  1  0  0  0  0
 11 50  1  0  0  0  0
 11 51  1  0  0  0  0
 12 52  1  0  0  0  0
 12 53  1  0  0  0  0
 13 54  1  0  0  0  0
 13 55  1  0  0  0  0
 14 56  1  0  0  0  0
 14 57  1  0  0  0  0
 15 58  1  0  0  0  0
 15 59  1  0  0  0  0
 16 60  1  0  0  0  0
 16 61  1  0  0  0  0
 17 62  1  0  0  0  0
 17 63  1  0  0  0  0
 18 64  1  0  0  0  0
 18 65  1  0  0  0  0
 19 66  1  0  0  0  0
 19 67  1  0  0  0  0
 20 68  1  0  0  0  0
 20 69  1  0  0  0  0
 21 70  1  0  0  0  0
 21 71  1  0  0  0  0
 24 72  1  0  0  0  0
 25 73  1  0  0  0  0
 25 74  1  0  0  0  0
 26 75  1  0  0  0  0
 26 76  1  0  0  0  0
 27 77  1  0  0  0  0
 27 78  1  0  0  0  0
 29 79  1  0  0  0  0
 29 80  1  0  0  0  0
 29 81  1  0  0  0  0
 30 82  1  0  0  0  0
 30 83  1  0  0  0  0
 30 84  1  0  0  0  0
M  END
>  <id_input>
927

>  <InChIKey>
AOKZLBCDXJYXOK-UHFFFAOYSA-N

>  <substance_name>
-

>  <casrn>
149968-48-9

>  <Molecular weight>
422.73046875

>  <guideline>
OECD Guideline 404 (Acute Dermal Irritation / Corrosion)

>  <species>
rabbit

>  <type_of_coverage>
semiocclusive

>  <max_duration(hrs)>
4.0

>  <vehicle>
unchanged (no vehicle)

>  <edema/ erythema score>
2.0

>  <max_score>
4.0

>  <reversibility>
0.0

>  <Outcome>
1

>  <StandardizerResult>
Remove Explicit Hydrogens (ID: RemoveExplicitH)
Clear Stereo (ID: ClearStereo)
Wedge Clean (ID: WedgeClean)
Mesomerize (ID: Mesomerize)
Tautomerize (ID: Tautomerize)
Add Explicit Hydrogens (ID: AddExplicitH)
Neutralize (ID: Neutralize)
Clean 2D (ID: Clean2D)


$$$$

  Mrv1812 02121911042D          

 43 43  0  0  0  0            999 V2000
   -1.5305   -0.0996    0.0000 C   0  0  0  0  0  0  0  0  0  0  0  0
   -0.8160    0.3129    0.0000 C   0  0  0  0  0  0  0  0  0  0  0  0
   -0.1016   -0.0996    0.0000 C   0  0  0  0  0  0  0  0  0  0  0  0
   -0.1016   -0.9246    0.0000 C   0  0  0  0  0  0  0  0  0  0  0  0
    0.6129    0.3129    0.0000 C   0  0  0  0  0  0  0  0  0  0  0  0
    0.6129    1.1379    0.0000 C   0  0  0  0  0  0  0  0  0  0  0  0
    1.3274   -0.0996    0.0000 C   0  0  0  0  0  0  0  0  0  0  0  0
    1.3274   -0.9246    0.0000 C   0  0  0  0  0  0  0  0  0  0  0  0
    2.0419    0.3129    0.0000 C   0  0  0  0  0  0  0  0  0  0  0  0
    2.7563   -0.0996    0.0000 C   0  0  0  0  0  0  0  0  0  0  0  0
    3.4708    0.3129    0.0000 C   0  0  0  0  0  0  0  0  0  0  0  0
    4.1853   -0.0996    0.0000 C   0  0  0  0  0  0  0  0  0  0  0  0
    4.8997    0.3129    0.0000 C   0  0  0  0  0  0  0  0  0  0  0  0
    4.8997    1.1379    0.0000 C   0  0  0  0  0  0  0  0  0  0  0  0
    5.6142    1.5504    0.0000 O   0  0  0  0  0  0  0  0  0  0  0  0
    4.1853    1.5504    0.0000 C   0  0  0  0  0  0  0  0  0  0  0  0
    3.4708    1.1379    0.0000 C   0  0  0  0  0  0  0  0  0  0  0  0
   -1.9430    0.6148    0.0000 H   0  0  0  0  0  0  0  0  0  0  0  0
   -2.2450   -0.5121    0.0000 H   0  0  0  0  0  0  0  0  0  0  0  0
   -1.1180   -0.8141    0.0000 H   0  0  0  0  0  0  0  0  0  0  0  0
   -0.4458    1.0501    0.0000 H   0  0  0  0  0  0  0  0  0  0  0  0
   -1.1863    1.0501    0.0000 H   0  0  0  0  0  0  0  0  0  0  0  0
   -0.8160   -0.5121    0.0000 H   0  0  0  0  0  0  0  0  0  0  0  0
   -0.6849   -1.5080    0.0000 H   0  0  0  0  0  0  0  0  0  0  0  0
    0.3109   -1.6391    0.0000 H   0  0  0  0  0  0  0  0  0  0  0  0
    0.6953   -0.7111    0.0000 H   0  0  0  0  0  0  0  0  0  0  0  0
   -0.1016    0.7254    0.0000 H   0  0  0  0  0  0  0  0  0  0  0  0
    1.4098    0.9243    0.0000 H   0  0  0  0  0  0  0  0  0  0  0  0
    1.0254    1.8523    0.0000 H   0  0  0  0  0  0  0  0  0  0  0  0
    0.0295    1.7212    0.0000 H   0  0  0  0  0  0  0  0  0  0  0  0
    2.0419   -0.5121    0.0000 H   0  0  0  0  0  0  0  0  0  0  0  0
    0.6817   -1.4382    0.0000 H   0  0  0  0  0  0  0  0  0  0  0  0
    1.4088   -1.7456    0.0000 H   0  0  0  0  0  0  0  0  0  0  0  0
    2.0614   -1.3013    0.0000 H   0  0  0  0  0  0  0  0  0  0  0  0
    2.7876    0.6656    0.0000 H   0  0  0  0  0  0  0  0  0  0  0  0
    2.1761    1.1269    0.0000 H   0  0  0  0  0  0  0  0  0  0  0  0
    2.8996   -0.9121    0.0000 H   0  0  0  0  0  0  0  0  0  0  0  0
    3.3883   -0.6299    0.0000 H   0  0  0  0  0  0  0  0  0  0  0  0
    4.6202   -0.8006    0.0000 H   0  0  0  0  0  0  0  0  0  0  0  0
    5.6142   -0.0996    0.0000 H   0  0  0  0  0  0  0  0  0  0  0  0
    6.3287    1.1379    0.0000 H   0  0  0  0  0  0  0  0  0  0  0  0
    4.1853    2.3754    0.0000 H   0  0  0  0  0  0  0  0  0  0  0  0
    3.0296    1.8350    0.0000 H   0  0  0  0  0  0  0  0  0  0  0  0
  1  2  1  0  0  0  0
  2  3  1  0  0  0  0
  3  4  1  0  0  0  0
  3  5  1  0  0  0  0
  5  6  1  0  0  0  0
  5  7  1  0  0  0  0
  7  8  1  0  0  0  0
  7  9  1  0  0  0  0
  9 10  1  0  0  0  0
 10 11  1  0  0  0  0
 12 11  4  0  0  0  0
 13 12  4  0  0  0  0
 14 13  4  0  0  0  0
 14 15  1  0  0  0  0
 16 14  4  0  0  0  0
 17 16  4  0  0  0  0
 11 17  4  0  0  0  0
  1 18  1  0  0  0  0
  1 19  1  0  0  0  0
  1 20  1  0  0  0  0
  2 21  1  0  0  0  0
  2 22  1  0  0  0  0
  3 23  1  0  0  0  0
  4 24  1  0  0  0  0
  4 25  1  0  0  0  0
  4 26  1  0  0  0  0
  5 27  1  0  0  0  0
  6 28  1  0  0  0  0
  6 29  1  0  0  0  0
  6 30  1  0  0  0  0
  7 31  1  0  0  0  0
  8 32  1  0  0  0  0
  8 33  1  0  0  0  0
  8 34  1  0  0  0  0
  9 35  1  0  0  0  0
  9 36  1  0  0  0  0
 10 37  1  0  0  0  0
 10 38  1  0  0  0  0
 12 39  1  0  0  0  0
 13 40  1  0  0  0  0
 15 41  1  0  0  0  0
 16 42  1  0  0  0  0
 17 43  1  0  0  0  0
M  END
>  <id_input>
2827

>  <InChIKey>
AOOKHLGAVNECET-UHFFFAOYSA-N

>  <substance_name>
4-(3,4,5,6-tetramethyloctan-2-yl)phenol

>  <casrn>
121158-58-5

>  <Molecular weight>
234.37704467773438

>  <guideline>
OECD Guideline 404 (Acute Dermal Irritation / Corrosion)

>  <species>
rabbit

>  <type_of_coverage>
semiocclusive

>  <max_duration(hrs)>
4.0

>  <vehicle>
unchanged (no vehicle)

>  <edema/ erythema score>
4.0

>  <max_score>
4.0

>  <reversibility>
1.0

>  <Outcome>
1

>  <StandardizerResult>
Remove Explicit Hydrogens (ID: RemoveExplicitH)
Dearomatize (ID: Dearomatize)
Clear Stereo (ID: ClearStereo)
Wedge Clean (ID: WedgeClean)
Mesomerize (ID: Mesomerize)
Tautomerize (ID: Tautomerize)
Aromatize (ID: Aromatize)
Add Explicit Hydrogens (ID: AddExplicitH)
Neutralize (ID: Neutralize)
Clean 2D (ID: Clean2D)


$$$$

  Mrv1812 02121911042D          

 12 11  0  0  0  0            999 V2000
    2.5382   -0.6801    0.0000 C   0  0  0  0  0  0  0  0  0  0  0  0
    2.1257    0.0344    0.0000 O   0  0  0  0  0  0  0  0  0  0  0  0
    1.3007    0.0344    0.0000 C   0  0  0  0  0  0  0  0  0  0  0  0
    0.8882   -0.6801    0.0000 O   0  0  0  0  0  0  0  0  0  0  0  0
    0.8882    0.7488    0.0000 C   0  0  0  0  0  0  0  0  0  0  0  0
    0.0632    0.7488    0.0000 C   0  0  0  0  0  0  0  0  0  0  0  0
    1.8237   -1.0926    0.0000 H   0  0  0  0  0  0  0  0  0  0  0  0
    2.9507   -1.3946    0.0000 H   0  0  0  0  0  0  0  0  0  0  0  0
    3.2527   -0.2676    0.0000 H   0  0  0  0  0  0  0  0  0  0  0  0
    1.3007    1.4633    0.0000 H   0  0  0  0  0  0  0  0  0  0  0  0
   -0.3493    1.4633    0.0000 H   0  0  0  0  0  0  0  0  0  0  0  0
   -0.3493    0.0344    0.0000 H   0  0  0  0  0  0  0  0  0  0  0  0
  1  2  1  0  0  0  0
  2  3  1  0  0  0  0
  3  4  2  0  0  0  0
  3  5  1  0  0  0  0
  5  6  2  0  0  0  0
  1  7  1  0  0  0  0
  1  8  1  0  0  0  0
  1  9  1  0  0  0  0
  5 10  1  0  0  0  0
  6 11  1  0  0  0  0
  6 12  1  0  0  0  0
M  END
>  <id_input>
4564

>  <InChIKey>
BAPJBEWLBFYGME-UHFFFAOYSA-N

>  <substance_name>
methyl prop-2-enoate

>  <casrn>
96-33-3

>  <Molecular weight>
86.08924102783203

>  <guideline>
OECD Guideline 404 (Acute Dermal Irritation / Corrosion)

>  <species>
rabbit

>  <type_of_coverage>
semiocclusive

>  <max_duration(hrs)>
4.0

>  <vehicle>
unchanged (no vehicle)

>  <edema/ erythema score>
2.385

>  <max_score>
3.0

>  <reversibility>
1.0

>  <Outcome>
1

>  <StandardizerResult>
Remove Explicit Hydrogens (ID: RemoveExplicitH)
Clear Stereo (ID: ClearStereo)
Wedge Clean (ID: WedgeClean)
Mesomerize (ID: Mesomerize)
Tautomerize (ID: Tautomerize)
Add Explicit Hydrogens (ID: AddExplicitH)
Neutralize (ID: Neutralize)
Clean 2D (ID: Clean2D)


$$$$

  Mrv1812 02121911042D          

 15 15  0  0  0  0            999 V2000
    2.2161    0.2108    0.0000 Cl  0  0  0  0  0  0  0  0  0  0  0  0
    1.5016    0.6233    0.0000 C   0  0  0  0  0  0  0  0  0  0  0  0
    0.7871    0.2108    0.0000 C   0  0  0  0  0  0  0  0  0  0  0  0
    0.0727    0.6233    0.0000 C   0  0  0  0  0  0  0  0  0  0  0  0
   -0.6418    0.2108    0.0000 C   0  0  0  0  0  0  0  0  0  0  0  0
   -0.6418   -0.6142    0.0000 C   0  0  0  0  0  0  0  0  0  0  0  0
    0.0727   -1.0267    0.0000 C   0  0  0  0  0  0  0  0  0  0  0  0
    0.7871   -0.6142    0.0000 C   0  0  0  0  0  0  0  0  0  0  0  0
    1.5016   -1.0267    0.0000 Cl  0  0  0  0  0  0  0  0  0  0  0  0
    1.8719    1.3606    0.0000 H   0  0  0  0  0  0  0  0  0  0  0  0
    1.1314    1.3606    0.0000 H   0  0  0  0  0  0  0  0  0  0  0  0
    0.0727    1.4483    0.0000 H   0  0  0  0  0  0  0  0  0  0  0  0
   -1.3563    0.6233    0.0000 H   0  0  0  0  0  0  0  0  0  0  0  0
   -1.3563   -1.0267    0.0000 H   0  0  0  0  0  0  0  0  0  0  0  0
    0.0727   -1.8517    0.0000 H   0  0  0  0  0  0  0  0  0  0  0  0
  1  2  1  0  0  0  0
  2  3  1  0  0  0  0
  4  3  4  0  0  0  0
  5  4  4  0  0  0  0
  6  5  4  0  0  0  0
  7  6  4  0  0  0  0
  8  7  4  0  0  0  0
  8  9  1  0  0  0  0
  3  8  4  0  0  0  0
  2 10  1  0  0  0  0
  2 11  1  0  0  0  0
  4 12  1  0  0  0  0
  5 13  1  0  0  0  0
  6 14  1  0  0  0  0
  7 15  1  0  0  0  0
M  END
>  <id_input>
1910

>  <InChIKey>
BASMANVIUSSIIM-UHFFFAOYSA-N

>  <substance_name>
1-chloro-2-(chloromethyl)benzene

>  <casrn>
611-19-8

>  <Molecular weight>
161.02853393554688

>  <guideline>
OECD Guideline 404 (Acute Dermal Irritation / Corrosion)

>  <species>
rabbit

>  <type_of_coverage>
semiocclusive

>  <max_duration(hrs)>
4.0

>  <vehicle>
unchanged (no vehicle)

>  <edema/ erythema score>
2.76666666666666

>  <max_score>
4.0

>  <reversibility>
0.0

>  <Outcome>
1

>  <StandardizerResult>
Remove Explicit Hydrogens (ID: RemoveExplicitH)
Dearomatize (ID: Dearomatize)
Clear Stereo (ID: ClearStereo)
Wedge Clean (ID: WedgeClean)
Mesomerize (ID: Mesomerize)
Tautomerize (ID: Tautomerize)
Aromatize (ID: Aromatize)
Add Explicit Hydrogens (ID: AddExplicitH)
Neutralize (ID: Neutralize)
Clean 2D (ID: Clean2D)


$$$$

  Mrv1812 02121911042D          

 20 20  0  0  0  0            999 V2000
    2.3661    0.1118    0.0000 C   0  0  0  0  0  0  0  0  0  0  0  0
    1.6516    0.5243    0.0000 C   0  0  0  0  0  0  0  0  0  0  0  0
    0.9372    0.1118    0.0000 C   0  0  0  0  0  0  0  0  0  0  0  0
    0.2227    0.5243    0.0000 C   0  0  0  0  0  0  0  0  0  0  0  0
   -0.4918    0.1118    0.0000 C   0  0  0  0  0  0  0  0  0  0  0  0
   -0.4918   -0.7132    0.0000 C   0  0  0  0  0  0  0  0  0  0  0  0
    0.2227   -1.1257    0.0000 C   0  0  0  0  0  0  0  0  0  0  0  0
    0.9372   -0.7132    0.0000 C   0  0  0  0  0  0  0  0  0  0  0  0
    2.3661   -0.7132    0.0000 H   0  0  0  0  0  0  0  0  0  0  0  0
    3.0806    0.5243    0.0000 H   0  0  0  0  0  0  0  0  0  0  0  0
    1.6516    1.3493    0.0000 H   0  0  0  0  0  0  0  0  0  0  0  0
    0.9372    0.9368    0.0000 H   0  0  0  0  0  0  0  0  0  0  0  0
    0.0794    1.3368    0.0000 H   0  0  0  0  0  0  0  0  0  0  0  0
   -0.4093    1.0546    0.0000 H   0  0  0  0  0  0  0  0  0  0  0  0
   -1.2509    0.4349    0.0000 H   0  0  0  0  0  0  0  0  0  0  0  0
   -1.2761   -0.1439    0.0000 H   0  0  0  0  0  0  0  0  0  0  0  0
   -0.9409   -1.4052    0.0000 H   0  0  0  0  0  0  0  0  0  0  0  0
    0.2227   -1.9507    0.0000 H   0  0  0  0  0  0  0  0  0  0  0  0
    1.3905   -1.4025    0.0000 H   0  0  0  0  0  0  0  0  0  0  0  0
    1.7608   -0.7612    0.0000 H   0  0  0  0  0  0  0  0  0  0  0  0
  1  2  2  0  0  0  0
  2  3  1  0  0  0  0
  4  3  1  0  0  0  0
  5  4  1  0  0  0  0
  6  5  1  0  0  0  0
  7  6  2  0  0  0  0
  8  7  1  0  0  0  0
  3  8  1  0  0  0  0
  1  9  1  0  0  0  0
  1 10  1  0  0  0  0
  2 11  1  0  0  0  0
  3 12  1  0  0  0  0
  4 13  1  0  0  0  0
  4 14  1  0  0  0  0
  5 15  1  0  0  0  0
  5 16  1  0  0  0  0
  6 17  1  0  0  0  0
  7 18  1  0  0  0  0
  8 19  1  0  0  0  0
  8 20  1  0  0  0  0
M  END
>  <id_input>
2897

>  <InChIKey>
BBDKZWKEPDTENS-UHFFFAOYSA-N

>  <substance_name>
4-ethenylcyclohex-1-ene

>  <casrn>
100-40-3

>  <Molecular weight>
108.1808853149414

>  <guideline>
OECD Guideline 404 (Acute Dermal Irritation / Corrosion)

>  <species>
rabbit

>  <type_of_coverage>
occlusive

>  <max_duration(hrs)>
4.0

>  <vehicle>
other: no vehicle

>  <edema/ erythema score>
2.56

>  <max_score>
4.0

>  <reversibility>
1.0

>  <Outcome>
1

>  <StandardizerResult>
Remove Explicit Hydrogens (ID: RemoveExplicitH)
Clear Stereo (ID: ClearStereo)
Wedge Clean (ID: WedgeClean)
Mesomerize (ID: Mesomerize)
Tautomerize (ID: Tautomerize)
Add Explicit Hydrogens (ID: AddExplicitH)
Neutralize (ID: Neutralize)
Clean 2D (ID: Clean2D)


$$$$

  Mrv1812 02121911042D          

  9  8  0  0  0  0            999 V2000
    2.1611   -0.3096    0.0000 Br  0  0  0  0  0  0  0  0  0  0  0  0
    1.3361   -0.3096    0.0000 C   0  0  0  0  0  0  0  0  0  0  0  0
    0.9236    0.4049    0.0000 C   0  0  0  0  0  0  0  0  0  0  0  0
    0.0986    0.4049    0.0000 C   0  0  0  0  0  0  0  0  0  0  0  0
    0.6468   -0.7629    0.0000 H   0  0  0  0  0  0  0  0  0  0  0  0
    1.2881   -1.1332    0.0000 H   0  0  0  0  0  0  0  0  0  0  0  0
    1.3361    1.1194    0.0000 H   0  0  0  0  0  0  0  0  0  0  0  0
   -0.3139    1.1194    0.0000 H   0  0  0  0  0  0  0  0  0  0  0  0
   -0.3139   -0.3096    0.0000 H   0  0  0  0  0  0  0  0  0  0  0  0
  1  2  1  0  0  0  0
  2  3  1  0  0  0  0
  3  4  2  0  0  0  0
  2  5  1  0  0  0  0
  2  6  1  0  0  0  0
  3  7  1  0  0  0  0
  4  8  1  0  0  0  0
  4  9  1  0  0  0  0
M  END
>  <id_input>
2730

>  <InChIKey>
BHELZAPQIKSEDF-UHFFFAOYSA-N

>  <substance_name>
3-bromoprop-1-ene

>  <casrn>
106-95-6

>  <Molecular weight>
120.97579956054688

>  <guideline>
OECD Guideline 404 (Acute Dermal Irritation / Corrosion)

>  <species>
rabbit

>  <type_of_coverage>
semiocclusive

>  <max_duration(hrs)>
4.0

>  <vehicle>
unchanged (no vehicle)

>  <edema/ erythema score>
3.5

>  <max_score>
4.0

>  <reversibility>
1.0

>  <Outcome>
1

>  <StandardizerResult>
Remove Explicit Hydrogens (ID: RemoveExplicitH)
Clear Stereo (ID: ClearStereo)
Wedge Clean (ID: WedgeClean)
Mesomerize (ID: Mesomerize)
Tautomerize (ID: Tautomerize)
Add Explicit Hydrogens (ID: AddExplicitH)
Neutralize (ID: Neutralize)
Clean 2D (ID: Clean2D)


$$$$

  Mrv1812 02121911042D          

 20 19  0  0  0  0            999 V2000
    1.6743   -0.3638    0.0000 C   0  0  0  0  0  0  0  0  0  0  0  0
    1.2618    0.3507    0.0000 C   0  0  0  0  0  0  0  0  0  0  0  0
    1.9763    0.7632    0.0000 C   0  0  0  0  0  0  0  0  0  0  0  0
    0.5474   -0.0618    0.0000 C   0  0  0  0  0  0  0  0  0  0  0  0
    0.8493    1.0652    0.0000 O   0  0  0  0  0  0  0  0  0  0  0  0
    0.0243    1.0652    0.0000 C   0  0  0  0  0  0  0  0  0  0  0  0
   -0.3882    0.3507    0.0000 O   0  0  0  0  0  0  0  0  0  0  0  0
   -0.3882    1.7796    0.0000 C   0  0  0  0  0  0  0  0  0  0  0  0
   -1.2132    1.7796    0.0000 Br  0  0  0  0  0  0  0  0  0  0  0  0
    0.9599   -0.7763    0.0000 H   0  0  0  0  0  0  0  0  0  0  0  0
    2.0868   -1.0783    0.0000 H   0  0  0  0  0  0  0  0  0  0  0  0
    2.3888    0.0487    0.0000 H   0  0  0  0  0  0  0  0  0  0  0  0
    2.7943    0.8709    0.0000 H   0  0  0  0  0  0  0  0  0  0  0  0
    2.1898    1.5601    0.0000 H   0  0  0  0  0  0  0  0  0  0  0  0
    1.3218    1.2654    0.0000 H   0  0  0  0  0  0  0  0  0  0  0  0
    0.4397    0.7561    0.0000 H   0  0  0  0  0  0  0  0  0  0  0  0
   -0.2495    0.1517    0.0000 H   0  0  0  0  0  0  0  0  0  0  0  0
    0.0452   -0.7163    0.0000 H   0  0  0  0  0  0  0  0  0  0  0  0
    0.3011    2.2330    0.0000 H   0  0  0  0  0  0  0  0  0  0  0  0
   -0.3402    2.6032    0.0000 H   0  0  0  0  0  0  0  0  0  0  0  0
  1  2  1  0  0  0  0
  2  3  1  0  0  0  0
  2  4  1  0  0  0  0
  2  5  1  0  0  0  0
  5  6  1  0  0  0  0
  6  7  2  0  0  0  0
  6  8  1  0  0  0  0
  8  9  1  0  0  0  0
  1 10  1  0  0  0  0
  1 11  1  0  0  0  0
  1 12  1  0  0  0  0
  3 13  1  0  0  0  0
  3 14  1  0  0  0  0
  3 15  1  0  0  0  0
  4 16  1  0  0  0  0
  4 17  1  0  0  0  0
  4 18  1  0  0  0  0
  8 19  1  0  0  0  0
  8 20  1  0  0  0  0
M  END
>  <id_input>
5001

>  <InChIKey>
BNWCETAHAJSBFG-UHFFFAOYSA-N

>  <substance_name>
tert-butyl bromoacetate

>  <casrn>
5292-43-3

>  <Molecular weight>
195.05433654785156

>  <guideline>
OECD Guideline 404 (Acute Dermal Irritation / Corrosion)

>  <species>
rabbit

>  <type_of_coverage>
semiocclusive

>  <max_duration(hrs)>
4.0

>  <vehicle>
unchanged (no vehicle)

>  <edema/ erythema score>
4.0

>  <reversibility>
1.0

>  <Outcome>
1

>  <StandardizerResult>
Remove Explicit Hydrogens (ID: RemoveExplicitH)
Clear Stereo (ID: ClearStereo)
Wedge Clean (ID: WedgeClean)
Mesomerize (ID: Mesomerize)
Tautomerize (ID: Tautomerize)
Add Explicit Hydrogens (ID: AddExplicitH)
Neutralize (ID: Neutralize)
Clean 2D (ID: Clean2D)


$$$$

  Mrv1812 02121911042D          

 14 14  0  0  0  0            999 V2000
    1.4684    0.6777    0.0000 N   0  0  0  0  0  0  0  0  0  0  0  0
    0.7540    0.2652    0.0000 C   0  0  0  0  0  0  0  0  0  0  0  0
    0.0395    0.6777    0.0000 C   0  0  0  0  0  0  0  0  0  0  0  0
   -0.6750    0.2652    0.0000 C   0  0  0  0  0  0  0  0  0  0  0  0
   -0.6750   -0.5598    0.0000 C   0  0  0  0  0  0  0  0  0  0  0  0
    0.0395   -0.9723    0.0000 C   0  0  0  0  0  0  0  0  0  0  0  0
    0.0395   -1.7973    0.0000 Cl  0  0  0  0  0  0  0  0  0  0  0  0
    0.7540   -0.5598    0.0000 C   0  0  0  0  0  0  0  0  0  0  0  0
    1.4684   -0.9723    0.0000 Cl  0  0  0  0  0  0  0  0  0  0  0  0
    2.1829    0.2652    0.0000 H   0  0  0  0  0  0  0  0  0  0  0  0
    1.4684    1.5027    0.0000 H   0  0  0  0  0  0  0  0  0  0  0  0
    0.0395    1.5027    0.0000 H   0  0  0  0  0  0  0  0  0  0  0  0
   -1.3895    0.6777    0.0000 H   0  0  0  0  0  0  0  0  0  0  0  0
   -1.3895   -0.9723    0.0000 H   0  0  0  0  0  0  0  0  0  0  0  0
  1  2  1  0  0  0  0
  3  2  4  0  0  0  0
  4  3  4  0  0  0  0
  5  4  4  0  0  0  0
  6  5  4  0  0  0  0
  6  7  1  0  0  0  0
  8  6  4  0  0  0  0
  8  9  1  0  0  0  0
  2  8  4  0  0  0  0
  1 10  1  0  0  0  0
  1 11  1  0  0  0  0
  3 12  1  0  0  0  0
  4 13  1  0  0  0  0
  5 14  1  0  0  0  0
M  END
>  <id_input>
2105

>  <InChIKey>
BRPSAOUFIJSKOT-UHFFFAOYSA-N

>  <substance_name>
2,3-dichloroaniline

>  <casrn>
608-27-5

>  <Molecular weight>
162.0166015625

>  <guideline>
OECD Guideline 404 (Acute Dermal Irritation / Corrosion)

>  <species>
rabbit

>  <type_of_coverage>
semiocclusive

>  <max_duration(hrs)>
4.0

>  <vehicle>
other: none

>  <edema/ erythema score>
2.9

>  <max_score>
4.0

>  <reversibility>
1.0

>  <Outcome>
1

>  <StandardizerResult>
Remove Explicit Hydrogens (ID: RemoveExplicitH)
Dearomatize (ID: Dearomatize)
Clear Stereo (ID: ClearStereo)
Wedge Clean (ID: WedgeClean)
Mesomerize (ID: Mesomerize)
Tautomerize (ID: Tautomerize)
Aromatize (ID: Aromatize)
Add Explicit Hydrogens (ID: AddExplicitH)
Neutralize (ID: Neutralize)
Clean 2D (ID: Clean2D)


$$$$

  Mrv1812 02121911042D          

 15 15  0  0  0  0            999 V2000
    2.2024    0.1925    0.0000 Cl  0  0  0  0  0  0  0  0  0  0  0  0
    1.4879    0.6050    0.0000 C   0  0  0  0  0  0  0  0  0  0  0  0
    1.4879    1.4300    0.0000 Cl  0  0  0  0  0  0  0  0  0  0  0  0
    0.7734    0.1925    0.0000 C   0  0  0  0  0  0  0  0  0  0  0  0
    0.0590    0.6050    0.0000 C   0  0  0  0  0  0  0  0  0  0  0  0
   -0.6555    0.1925    0.0000 C   0  0  0  0  0  0  0  0  0  0  0  0
   -0.6555   -0.6325    0.0000 C   0  0  0  0  0  0  0  0  0  0  0  0
    0.0590   -1.0450    0.0000 C   0  0  0  0  0  0  0  0  0  0  0  0
    0.7734   -0.6325    0.0000 C   0  0  0  0  0  0  0  0  0  0  0  0
    1.4879   -1.0450    0.0000 Cl  0  0  0  0  0  0  0  0  0  0  0  0
    2.2024    1.0175    0.0000 H   0  0  0  0  0  0  0  0  0  0  0  0
    0.0590    1.4300    0.0000 H   0  0  0  0  0  0  0  0  0  0  0  0
   -1.3700    0.6050    0.0000 H   0  0  0  0  0  0  0  0  0  0  0  0
   -1.3700   -1.0450    0.0000 H   0  0  0  0  0  0  0  0  0  0  0  0
    0.0590   -1.8700    0.0000 H   0  0  0  0  0  0  0  0  0  0  0  0
  1  2  1  0  0  0  0
  2  3  1  0  0  0  0
  2  4  1  0  0  0  0
  5  4  4  0  0  0  0
  6  5  4  0  0  0  0
  7  6  4  0  0  0  0
  8  7  4  0  0  0  0
  9  8  4  0  0  0  0
  9 10  1  0  0  0  0
  4  9  4  0  0  0  0
  2 11  1  0  0  0  0
  5 12  1  0  0  0  0
  6 13  1  0  0  0  0
  7 14  1  0  0  0  0
  8 15  1  0  0  0  0
M  END
>  <id_input>
1913

>  <InChIKey>
BXSVYGKOUULJCL-UHFFFAOYSA-N

>  <substance_name>
1-chloro-2-(dichloromethyl)benzene

>  <casrn>
88-66-4

>  <Molecular weight>
195.47360229492188

>  <guideline>
OECD Guideline 404 (Acute Dermal Irritation / Corrosion)

>  <species>
rabbit

>  <type_of_coverage>
semiocclusive

>  <max_duration(hrs)>
4.0

>  <vehicle>
unchanged (no vehicle)

>  <edema/ erythema score>
1.8

>  <max_score>
4.0

>  <reversibility>
0.0

>  <Outcome>
1

>  <StandardizerResult>
Remove Explicit Hydrogens (ID: RemoveExplicitH)
Dearomatize (ID: Dearomatize)
Clear Stereo (ID: ClearStereo)
Wedge Clean (ID: WedgeClean)
Mesomerize (ID: Mesomerize)
Tautomerize (ID: Tautomerize)
Aromatize (ID: Aromatize)
Add Explicit Hydrogens (ID: AddExplicitH)
Neutralize (ID: Neutralize)
Clean 2D (ID: Clean2D)


$$$$

  Mrv1812 02121911042D          

 22 21  0  0  0  0            999 V2000
    0.0000    0.3000    0.0000 C   0  0  0  0  0  0  0  0  0  0  0  0
    0.7145   -0.1125    0.0000 C   0  0  0  0  0  0  0  0  0  0  0  0
    1.4290    0.3000    0.0000 C   0  0  0  0  0  0  0  0  0  0  0  0
    2.1434   -0.1125    0.0000 C   0  0  0  0  0  0  0  0  0  0  0  0
    2.8579    0.3000    0.0000 C   0  0  0  0  0  0  0  0  0  0  0  0
    3.5724   -0.1125    0.0000 C   0  0  0  0  0  0  0  0  0  0  0  0
    4.2868    0.3000    0.0000 C   0  0  0  0  0  0  0  0  0  0  0  0
    3.5724   -0.9375    0.0000 O   0  0  0  0  0  0  0  0  0  0  0  0
    0.4125    1.0145    0.0000 H   0  0  0  0  0  0  0  0  0  0  0  0
   -0.7145    0.7125    0.0000 H   0  0  0  0  0  0  0  0  0  0  0  0
   -0.4125   -0.4145    0.0000 H   0  0  0  0  0  0  0  0  0  0  0  0
    0.3442   -0.8497    0.0000 H   0  0  0  0  0  0  0  0  0  0  0  0
    1.0847   -0.8497    0.0000 H   0  0  0  0  0  0  0  0  0  0  0  0
    1.7992    1.0372    0.0000 H   0  0  0  0  0  0  0  0  0  0  0  0
    1.0587    1.0372    0.0000 H   0  0  0  0  0  0  0  0  0  0  0  0
    1.7732   -0.8497    0.0000 H   0  0  0  0  0  0  0  0  0  0  0  0
    2.5137   -0.8497    0.0000 H   0  0  0  0  0  0  0  0  0  0  0  0
    3.2282    1.0372    0.0000 H   0  0  0  0  0  0  0  0  0  0  0  0
    2.4876    1.0372    0.0000 H   0  0  0  0  0  0  0  0  0  0  0  0
    4.6993   -0.4145    0.0000 H   0  0  0  0  0  0  0  0  0  0  0  0
    5.0013    0.7125    0.0000 H   0  0  0  0  0  0  0  0  0  0  0  0
    3.8743    1.0145    0.0000 H   0  0  0  0  0  0  0  0  0  0  0  0
  1  2  1  0  0  0  0
  2  3  1  0  0  0  0
  3  4  1  0  0  0  0
  4  5  1  0  0  0  0
  5  6  1  0  0  0  0
  6  7  1  0  0  0  0
  6  8  2  0  0  0  0
  1  9  1  0  0  0  0
  1 10  1  0  0  0  0
  1 11  1  0  0  0  0
  2 12  1  0  0  0  0
  2 13  1  0  0  0  0
  3 14  1  0  0  0  0
  3 15  1  0  0  0  0
  4 16  1  0  0  0  0
  4 17  1  0  0  0  0
  5 18  1  0  0  0  0
  5 19  1  0  0  0  0
  7 20  1  0  0  0  0
  7 21  1  0  0  0  0
  7 22  1  0  0  0  0
M  END
>  <id_input>
4374

>  <InChIKey>
CATSNJVOTSVZJV-UHFFFAOYSA-N

>  <substance_name>
heptan-2-one

>  <casrn>
110-43-0

>  <Molecular weight>
114.18546295166016

>  <guideline>
OECD Guideline 404 (Acute Dermal Irritation / Corrosion)

>  <species>
rabbit

>  <type_of_coverage>
semiocclusive

>  <max_duration(hrs)>
4.0

>  <vehicle>
unchanged (no vehicle)

>  <edema/ erythema score>
2.0

>  <reversibility>
0.0

>  <Outcome>
1

>  <StandardizerResult>
Remove Explicit Hydrogens (ID: RemoveExplicitH)
Clear Stereo (ID: ClearStereo)
Wedge Clean (ID: WedgeClean)
Mesomerize (ID: Mesomerize)
Tautomerize (ID: Tautomerize)
Add Explicit Hydrogens (ID: AddExplicitH)
Neutralize (ID: Neutralize)
Clean 2D (ID: Clean2D)


$$$$

  Mrv1812 02121911042D          

 14 14  0  0  0  0            999 V2000
    2.1829    0.2652    0.0000 Cl  0  0  0  0  0  0  0  0  0  0  0  0
    1.4684    0.6777    0.0000 C   0  0  0  0  0  0  0  0  0  0  0  0
    1.4684    1.5027    0.0000 O   0  0  0  0  0  0  0  0  0  0  0  0
    0.7540    0.2652    0.0000 C   0  0  0  0  0  0  0  0  0  0  0  0
    0.0395    0.6777    0.0000 C   0  0  0  0  0  0  0  0  0  0  0  0
   -0.6750    0.2652    0.0000 C   0  0  0  0  0  0  0  0  0  0  0  0
   -0.6750   -0.5598    0.0000 C   0  0  0  0  0  0  0  0  0  0  0  0
   -1.3895   -0.9723    0.0000 Cl  0  0  0  0  0  0  0  0  0  0  0  0
    0.0395   -0.9723    0.0000 C   0  0  0  0  0  0  0  0  0  0  0  0
    0.7540   -0.5598    0.0000 C   0  0  0  0  0  0  0  0  0  0  0  0
    1.4684   -0.9723    0.0000 Cl  0  0  0  0  0  0  0  0  0  0  0  0
    0.0395    1.5027    0.0000 H   0  0  0  0  0  0  0  0  0  0  0  0
   -1.3895    0.6777    0.0000 H   0  0  0  0  0  0  0  0  0  0  0  0
    0.0395   -1.7973    0.0000 H   0  0  0  0  0  0  0  0  0  0  0  0
  1  2  1  0  0  0  0
  2  3  2  0  0  0  0
  2  4  1  0  0  0  0
  5  4  4  0  0  0  0
  6  5  4  0  0  0  0
  7  6  4  0  0  0  0
  7  8  1  0  0  0  0
  9  7  4  0  0  0  0
 10  9  4  0  0  0  0
 10 11  1  0  0  0  0
  4 10  4  0  0  0  0
  5 12  1  0  0  0  0
  6 13  1  0  0  0  0
  9 14  1  0  0  0  0
M  END
>  <id_input>
2125

>  <InChIKey>
CEOCVKWBUWKBKA-UHFFFAOYSA-N

>  <substance_name>
2,4-dichlorobenzoyl chloride

>  <casrn>
89-75-8

>  <Molecular weight>
209.45712280273438

>  <guideline>
OECD Guideline 404 (Acute Dermal Irritation / Corrosion)

>  <species>
rabbit

>  <type_of_coverage>
semiocclusive

>  <max_duration(hrs)>
4.0

>  <vehicle>
unchanged (no vehicle)

>  <edema/ erythema score>
2.0

>  <max_score>
2.0

>  <reversibility>
0.0

>  <Outcome>
1

>  <StandardizerResult>
Remove Explicit Hydrogens (ID: RemoveExplicitH)
Dearomatize (ID: Dearomatize)
Clear Stereo (ID: ClearStereo)
Wedge Clean (ID: WedgeClean)
Mesomerize (ID: Mesomerize)
Tautomerize (ID: Tautomerize)
Aromatize (ID: Aromatize)
Add Explicit Hydrogens (ID: AddExplicitH)
Neutralize (ID: Neutralize)
Clean 2D (ID: Clean2D)


$$$$

  Mrv1812 02121911042D          

 11 10  0  0  0  0            999 V2000
    1.6373   -0.9820    0.0000 Cl  0  0  0  0  0  0  0  0  0  0  0  0
    1.2248   -0.2676    0.0000 C   0  0  0  0  0  0  0  0  0  0  0  0
    0.3998   -0.2676    0.0000 C   0  0  0  0  0  0  0  0  0  0  0  0
   -0.0127   -0.9820    0.0000 Cl  0  0  0  0  0  0  0  0  0  0  0  0
   -0.0127    0.4469    0.0000 C   0  0  0  0  0  0  0  0  0  0  0  0
   -0.8377    0.4469    0.0000 Cl  0  0  0  0  0  0  0  0  0  0  0  0
    1.9141    0.1858    0.0000 H   0  0  0  0  0  0  0  0  0  0  0  0
    1.2728    0.5561    0.0000 H   0  0  0  0  0  0  0  0  0  0  0  0
    0.8123   -0.9820    0.0000 H   0  0  0  0  0  0  0  0  0  0  0  0
    0.6766    0.9003    0.0000 H   0  0  0  0  0  0  0  0  0  0  0  0
    0.0353    1.2705    0.0000 H   0  0  0  0  0  0  0  0  0  0  0  0
  1  2  1  0  0  0  0
  2  3  1  0  0  0  0
  3  4  1  0  0  0  0
  3  5  1  0  0  0  0
  5  6  1  0  0  0  0
  2  7  1  0  0  0  0
  2  8  1  0  0  0  0
  3  9  1  0  0  0  0
  5 10  1  0  0  0  0
  5 11  1  0  0  0  0
M  END
>  <id_input>
1704

>  <InChIKey>
CFXQEHVMCRXUSD-UHFFFAOYSA-N

>  <substance_name>
1,2,3-trichloropropane

>  <casrn>
96-18-4

>  <Molecular weight>
147.43080139160156

>  <guideline>
OECD Guideline 404 (Acute Dermal Irritation / Corrosion)

>  <species>
rabbit

>  <type_of_coverage>
other: 4h exposure: semi-occlusive; 24 h exposure: occlusive

>  <max_duration(hrs)>
24.0

>  <vehicle>
unchanged (no vehicle)

>  <edema/ erythema score>
2.0

>  <max_score>
2.0

>  <reversibility>
0.0

>  <Outcome>
1

>  <StandardizerResult>
Remove Explicit Hydrogens (ID: RemoveExplicitH)
Clear Stereo (ID: ClearStereo)
Wedge Clean (ID: WedgeClean)
Mesomerize (ID: Mesomerize)
Tautomerize (ID: Tautomerize)
Add Explicit Hydrogens (ID: AddExplicitH)
Neutralize (ID: Neutralize)
Clean 2D (ID: Clean2D)


$$$$

  Mrv1812 02121911042D          

 52 51  0  0  0  0            999 V2000
   -5.6196    0.1825    0.0000 C   0  0  0  0  0  0  0  0  0  0  0  0
   -4.9051   -0.2300    0.0000 C   0  0  0  0  0  0  0  0  0  0  0  0
   -4.1907    0.1825    0.0000 C   0  0  0  0  0  0  0  0  0  0  0  0
   -3.4762   -0.2300    0.0000 C   0  0  0  0  0  0  0  0  0  0  0  0
   -2.7617    0.1825    0.0000 C   0  0  0  0  0  0  0  0  0  0  0  0
   -2.0473   -0.2300    0.0000 C   0  0  0  0  0  0  0  0  0  0  0  0
   -1.3328    0.1825    0.0000 C   0  0  0  0  0  0  0  0  0  0  0  0
   -0.6183   -0.2300    0.0000 C   0  0  0  0  0  0  0  0  0  0  0  0
    0.0962    0.1825    0.0000 C   0  0  0  0  0  0  0  0  0  0  0  0
    0.8106   -0.2300    0.0000 C   0  0  0  0  0  0  0  0  0  0  0  0
    1.5251    0.1825    0.0000 C   0  0  0  0  0  0  0  0  0  0  0  0
    2.2396   -0.2300    0.0000 C   0  0  0  0  0  0  0  0  0  0  0  0
    2.9540    0.1825    0.0000 C   0  0  0  0  0  0  0  0  0  0  0  0
    3.6685   -0.2300    0.0000 C   0  0  0  0  0  0  0  0  0  0  0  0
    4.3830    0.1825    0.0000 C   0  0  0  0  0  0  0  0  0  0  0  0
    5.0975   -0.2300    0.0000 N   0  3  0  0  0  0  0  0  0  0  0  0
    5.8119    0.1825    0.0000 C   0  0  0  0  0  0  0  0  0  0  0  0
    5.0975   -1.0550    0.0000 O   0  0  0  0  0  0  0  0  0  0  0  0
   -5.2071    0.8970    0.0000 H   0  0  0  0  0  0  0  0  0  0  0  0
   -6.3341    0.5950    0.0000 H   0  0  0  0  0  0  0  0  0  0  0  0
   -6.0321   -0.5320    0.0000 H   0  0  0  0  0  0  0  0  0  0  0  0
   -5.2754   -0.9672    0.0000 H   0  0  0  0  0  0  0  0  0  0  0  0
   -4.5349   -0.9672    0.0000 H   0  0  0  0  0  0  0  0  0  0  0  0
   -3.8204    0.9197    0.0000 H   0  0  0  0  0  0  0  0  0  0  0  0
   -4.5609    0.9197    0.0000 H   0  0  0  0  0  0  0  0  0  0  0  0
   -3.8465   -0.9672    0.0000 H   0  0  0  0  0  0  0  0  0  0  0  0
   -3.1059   -0.9672    0.0000 H   0  0  0  0  0  0  0  0  0  0  0  0
   -2.3915    0.9197    0.0000 H   0  0  0  0  0  0  0  0  0  0  0  0
   -3.1320    0.9197    0.0000 H   0  0  0  0  0  0  0  0  0  0  0  0
   -2.4175   -0.9672    0.0000 H   0  0  0  0  0  0  0  0  0  0  0  0
   -1.6770   -0.9672    0.0000 H   0  0  0  0  0  0  0  0  0  0  0  0
   -0.9625    0.9197    0.0000 H   0  0  0  0  0  0  0  0  0  0  0  0
   -1.7030    0.9197    0.0000 H   0  0  0  0  0  0  0  0  0  0  0  0
   -0.9886   -0.9672    0.0000 H   0  0  0  0  0  0  0  0  0  0  0  0
   -0.2481   -0.9672    0.0000 H   0  0  0  0  0  0  0  0  0  0  0  0
    0.4664    0.9197    0.0000 H   0  0  0  0  0  0  0  0  0  0  0  0
   -0.2741    0.9197    0.0000 H   0  0  0  0  0  0  0  0  0  0  0  0
    0.4404   -0.9672    0.0000 H   0  0  0  0  0  0  0  0  0  0  0  0
    1.1809   -0.9672    0.0000 H   0  0  0  0  0  0  0  0  0  0  0  0
    1.8954    0.9197    0.0000 H   0  0  0  0  0  0  0  0  0  0  0  0
    1.1548    0.9197    0.0000 H   0  0  0  0  0  0  0  0  0  0  0  0
    1.8693   -0.9672    0.0000 H   0  0  0  0  0  0  0  0  0  0  0  0
    2.6098   -0.9672    0.0000 H   0  0  0  0  0  0  0  0  0  0  0  0
    3.3243    0.9197    0.0000 H   0  0  0  0  0  0  0  0  0  0  0  0
    2.5838    0.9197    0.0000 H   0  0  0  0  0  0  0  0  0  0  0  0
    3.2983   -0.9672    0.0000 H   0  0  0  0  0  0  0  0  0  0  0  0
    4.0388   -0.9672    0.0000 H   0  0  0  0  0  0  0  0  0  0  0  0
    4.7532    0.9197    0.0000 H   0  0  0  0  0  0  0  0  0  0  0  0
    4.0127    0.9197    0.0000 H   0  0  0  0  0  0  0  0  0  0  0  0
    6.5264   -0.2300    0.0000 H   0  0  0  0  0  0  0  0  0  0  0  0
    5.8119    1.0075    0.0000 H   0  0  0  0  0  0  0  0  0  0  0  0
    4.3830   -1.4675    0.0000 H   0  0  0  0  0  0  0  0  0  0  0  0
  1  2  1  0  0  0  0
  2  3  1  0  0  0  0
  3  4  1  0  0  0  0
  4  5  1  0  0  0  0
  5  6  1  0  0  0  0
  6  7  1  0  0  0  0
  7  8  1  0  0  0  0
  8  9  1  0  0  0  0
  9 10  1  0  0  0  0
 10 11  1  0  0  0  0
 11 12  1  0  0  0  0
 12 13  1  0  0  0  0
 13 14  1  0  0  0  0
 14 15  1  0  0  0  0
 15 16  1  0  0  0  0
 16 17  2  0  0  0  0
 16 18  1  0  0  0  0
  1 19  1  0  0  0  0
  1 20  1  0  0  0  0
  1 21  1  0  0  0  0
  2 22  1  0  0  0  0
  2 23  1  0  0  0  0
  3 24  1  0  0  0  0
  3 25  1  0  0  0  0
  4 26  1  0  0  0  0
  4 27  1  0  0  0  0
  5 28  1  0  0  0  0
  5 29  1  0  0  0  0
  6 30  1  0  0  0  0
  6 31  1  0  0  0  0
  7 32  1  0  0  0  0
  7 33  1  0  0  0  0
  8 34  1  0  0  0  0
  8 35  1  0  0  0  0
  9 36  1  0  0  0  0
  9 37  1  0  0  0  0
 10 38  1  0  0  0  0
 10 39  1  0  0  0  0
 11 40  1  0  0  0  0
 11 41  1  0  0  0  0
 12 42  1  0  0  0  0
 12 43  1  0  0  0  0
 13 44  1  0  0  0  0
 13 45  1  0  0  0  0
 14 46  1  0  0  0  0
 14 47  1  0  0  0  0
 15 48  1  0  0  0  0
 15 49  1  0  0  0  0
 17 50  1  0  0  0  0
 17 51  1  0  0  0  0
 18 52  1  0  0  0  0
M  CHG  1  16   1
M  END
>  <id_input>
5485

>  <InChIKey>
CRDBNVPTOXURQK-UHFFFAOYSA-N

>  <substance_name>
unnamed [68955-55-5]

>  <casrn>
68955-55-5

>  <Molecular weight>
271.4817810058594

>  <guideline>
OECD Guideline 404 (Acute Dermal Irritation / Corrosion)

>  <species>
rabbit

>  <type_of_coverage>
semiocclusive

>  <max_duration(hrs)>
4.0

>  <vehicle>
unchanged (no vehicle)

>  <edema/ erythema score>
2.23333333333333

>  <max_score>
4.0

>  <reversibility>
0.0

>  <Outcome>
1

>  <StandardizerResult>
Remove Explicit Hydrogens (ID: RemoveExplicitH)
Clear Stereo (ID: ClearStereo)
Wedge Clean (ID: WedgeClean)
Mesomerize (ID: Mesomerize)
Tautomerize (ID: Tautomerize)
Add Explicit Hydrogens (ID: AddExplicitH)
Clean 2D (ID: Clean2D)


$$$$

  Mrv1812 02121911042D          

 56 56  0  0  0  0            999 V2000
    5.7537    2.1470    0.0000 C   0  0  0  0  0  0  0  0  0  0  0  0
    5.1218    1.6167    0.0000 C   0  0  0  0  0  0  0  0  0  0  0  0
    4.5915    2.2487    0.0000 C   0  0  0  0  0  0  0  0  0  0  0  0
    5.6521    0.9847    0.0000 C   0  0  0  0  0  0  0  0  0  0  0  0
    4.4898    1.0864    0.0000 C   0  0  0  0  0  0  0  0  0  0  0  0
    4.6330    0.2739    0.0000 C   0  0  0  0  0  0  0  0  0  0  0  0
    4.0010   -0.2564    0.0000 C   0  0  0  0  0  0  0  0  0  0  0  0
    4.1443   -1.0689    0.0000 C   0  0  0  0  0  0  0  0  0  0  0  0
    3.5123   -1.5992    0.0000 C   0  0  0  0  0  0  0  0  0  0  0  0
    3.0998   -2.3136    0.0000 O   0  0  0  0  0  0  0  0  0  0  0  0
    3.9248   -2.3136    0.0000 O   0  0  0  0  0  0  0  0  0  0  0  0
    2.8803   -1.0689    0.0000 C   0  0  0  0  0  0  0  0  0  0  0  0
    3.0236   -0.2564    0.0000 O   0  0  0  0  0  0  0  0  0  0  0  0
    2.1051   -1.3510    0.0000 O   0  0  0  0  0  0  0  0  0  0  0  0
    1.4731   -0.8207    0.0000 C   0  0  0  0  0  0  0  0  0  0  0  0
    2.0034   -0.1887    0.0000 C   0  0  0  0  0  0  0  0  0  0  0  0
    0.9428   -1.4527    0.0000 C   0  0  0  0  0  0  0  0  0  0  0  0
    0.8411   -0.2904    0.0000 C   0  0  0  0  0  0  0  0  0  0  0  0
    0.0659   -0.5726    0.0000 C   0  0  0  0  0  0  0  0  0  0  0  0
   -0.7094   -0.8548    0.0000 C   0  0  0  0  0  0  0  0  0  0  0  0
   -0.2163    0.2027    0.0000 C   0  0  0  0  0  0  0  0  0  0  0  0
    0.3480   -1.3478    0.0000 C   0  0  0  0  0  0  0  0  0  0  0  0
    6.2840    1.5150    0.0000 H   0  0  0  0  0  0  0  0  0  0  0  0
    6.3857    2.6773    0.0000 H   0  0  0  0  0  0  0  0  0  0  0  0
    5.2234    2.7790    0.0000 H   0  0  0  0  0  0  0  0  0  0  0  0
    4.3434    3.0355    0.0000 H   0  0  0  0  0  0  0  0  0  0  0  0
    3.7696    2.3206    0.0000 H   0  0  0  0  0  0  0  0  0  0  0  0
    4.2105    1.5169    0.0000 H   0  0  0  0  0  0  0  0  0  0  0  0
    4.8652    0.7366    0.0000 H   0  0  0  0  0  0  0  0  0  0  0  0
    5.5802    0.1628    0.0000 H   0  0  0  0  0  0  0  0  0  0  0  0
    6.3838    0.6038    0.0000 H   0  0  0  0  0  0  0  0  0  0  0  0
    3.6675    1.1538    0.0000 H   0  0  0  0  0  0  0  0  0  0  0  0
    3.9341    0.4766    0.0000 H   0  0  0  0  0  0  0  0  0  0  0  0
    4.5531   -0.5472    0.0000 H   0  0  0  0  0  0  0  0  0  0  0  0
    5.1508   -0.3684    0.0000 H   0  0  0  0  0  0  0  0  0  0  0  0
    3.1969   -0.0719    0.0000 H   0  0  0  0  0  0  0  0  0  0  0  0
    3.2736   -0.6455    0.0000 H   0  0  0  0  0  0  0  0  0  0  0  0
    4.4882   -1.8188    0.0000 H   0  0  0  0  0  0  0  0  0  0  0  0
    4.9053   -1.3874    0.0000 H   0  0  0  0  0  0  0  0  0  0  0  0
    2.6354   -0.7190    0.0000 H   0  0  0  0  0  0  0  0  0  0  0  0
    2.5337    0.4433    0.0000 H   0  0  0  0  0  0  0  0  0  0  0  0
    1.3714    0.3416    0.0000 H   0  0  0  0  0  0  0  0  0  0  0  0
    0.4125   -2.0847    0.0000 H   0  0  0  0  0  0  0  0  0  0  0  0
    1.2250   -2.2280    0.0000 H   0  0  0  0  0  0  0  0  0  0  0  0
    1.7553   -1.5960    0.0000 H   0  0  0  0  0  0  0  0  0  0  0  0
    0.3679    0.3854    0.0000 H   0  0  0  0  0  0  0  0  0  0  0  0
    0.6978   -1.1029    0.0000 H   0  0  0  0  0  0  0  0  0  0  0  0
   -0.9916   -0.0795    0.0000 H   0  0  0  0  0  0  0  0  0  0  0  0
   -1.4846   -1.1369    0.0000 H   0  0  0  0  0  0  0  0  0  0  0  0
   -0.4272   -1.6300    0.0000 H   0  0  0  0  0  0  0  0  0  0  0  0
    0.1579    0.9379    0.0000 H   0  0  0  0  0  0  0  0  0  0  0  0
   -0.4806    0.9842    0.0000 H   0  0  0  0  0  0  0  0  0  0  0  0
   -0.9600    0.5599    0.0000 H   0  0  0  0  0  0  0  0  0  0  0  0
   -0.3997   -0.9992    0.0000 H   0  0  0  0  0  0  0  0  0  0  0  0
   -0.0952   -2.0436    0.0000 H   0  0  0  0  0  0  0  0  0  0  0  0
    0.5961   -0.5610    0.0000 H   0  0  0  0  0  0  0  0  0  0  0  0
  1  2  1  0  0  0  0
  2  3  1  0  0  0  0
  2  4  1  0  0  0  0
  2  5  1  0  0  0  0
  5  6  1  0  0  0  0
  6  7  1  0  0  0  0
  7  8  1  0  0  0  0
  8  9  1  0  0  0  0
 10  9  1  0  0  0  0
 11 10  1  0  0  0  0
  9 12  1  0  0  0  0
 12 13  2  0  0  0  0
 12 14  1  0  0  0  0
 14 15  1  0  0  0  0
 15 16  1  0  0  0  0
 15 17  1  0  0  0  0
 15 18  1  0  0  0  0
 18 19  1  0  0  0  0
 19 20  1  0  0  0  0
 19 21  1  0  0  0  0
 19 22  1  0  0  0  0
  9 11  1  0  0  0  0
  1 23  1  0  0  0  0
  1 24  1  0  0  0  0
  1 25  1  0  0  0  0
  3 26  1  0  0  0  0
  3 27  1  0  0  0  0
  3 28  1  0  0  0  0
  4 29  1  0  0  0  0
  4 30  1  0  0  0  0
  4 31  1  0  0  0  0
  5 32  1  0  0  0  0
  5 33  1  0  0  0  0
  6 34  1  0  0  0  0
  6 35  1  0  0  0  0
  7 36  1  0  0  0  0
  7 37  1  0  0  0  0
  8 38  1  0  0  0  0
  8 39  1  0  0  0  0
 16 40  1  0  0  0  0
 16 41  1  0  0  0  0
 16 42  1  0  0  0  0
 17 43  1  0  0  0  0
 17 44  1  0  0  0  0
 17 45  1  0  0  0  0
 18 46  1  0  0  0  0
 18 47  1  0  0  0  0
 20 48  1  0  0  0  0
 20 49  1  0  0  0  0
 20 50  1  0  0  0  0
 21 51  1  0  0  0  0
 21 52  1  0  0  0  0
 21 53  1  0  0  0  0
 22 54  1  0  0  0  0
 22 55  1  0  0  0  0
 22 56  1  0  0  0  0
M  END
>  <id_input>
2110

>  <InChIKey>
CRJIYMRJTJWVLU-UHFFFAOYSA-N

>  <substance_name>
2,4,4-trimethylpentan-2-yl 2,2,3,5-tetramethylhexaneperoxoate 2,4,4-trimethylpentan-2-yl 2,2-diethylhexaneperoxoate 2,4,4-trimethylpentan-2-yl 2,2-dimethyloctaneperoxoate 2,4,4-trimethylpentan-2-yl 2,4-dimethyl-2-(propan-2-yl)pentaneperoxoate 2,4,4-trimethylpentan-2-yl 2-ethyl-2,5-dimethylhexaneperoxoate

>  <casrn>
51240-95-0

>  <Molecular weight>
314.4601745605469

>  <guideline>
OECD Guideline 404 (Acute Dermal Irritation / Corrosion)

>  <species>
rabbit

>  <type_of_coverage>
semiocclusive

>  <max_duration(hrs)>
4.0

>  <vehicle>
unchanged (no vehicle)

>  <edema/ erythema score>
1.88

>  <max_score>
4.0

>  <reversibility>
0.0

>  <Outcome>
1

>  <StandardizerResult>
Remove Explicit Hydrogens (ID: RemoveExplicitH)
Clear Stereo (ID: ClearStereo)
Wedge Clean (ID: WedgeClean)
Mesomerize (ID: Mesomerize)
Tautomerize (ID: Tautomerize)
Add Explicit Hydrogens (ID: AddExplicitH)
Neutralize (ID: Neutralize)
Clean 2D (ID: Clean2D)


$$$$

  Mrv1812 02121911042D          

 13 13  0  0  0  0            999 V2000
    2.2324    0.0805    0.0000 O   0  0  0  0  0  0  0  0  0  0  0  0
    1.5179    0.4930    0.0000 C   0  0  0  0  0  0  0  0  0  0  0  0
    0.8034    0.0805    0.0000 C   0  0  0  0  0  0  0  0  0  0  0  0
    0.0890    0.4930    0.0000 C   0  0  0  0  0  0  0  0  0  0  0  0
   -0.6255    0.0805    0.0000 C   0  0  0  0  0  0  0  0  0  0  0  0
   -0.6255   -0.7445    0.0000 C   0  0  0  0  0  0  0  0  0  0  0  0
    0.0890   -1.1570    0.0000 C   0  0  0  0  0  0  0  0  0  0  0  0
    0.8034   -0.7445    0.0000 N   0  0  0  0  0  0  0  0  0  0  0  0
    1.5179    1.3180    0.0000 H   0  0  0  0  0  0  0  0  0  0  0  0
    0.0890    1.3180    0.0000 H   0  0  0  0  0  0  0  0  0  0  0  0
   -1.3400    0.4930    0.0000 H   0  0  0  0  0  0  0  0  0  0  0  0
   -1.3400   -1.1570    0.0000 H   0  0  0  0  0  0  0  0  0  0  0  0
    0.0890   -1.9820    0.0000 H   0  0  0  0  0  0  0  0  0  0  0  0
  1  2  2  0  0  0  0
  2  3  1  0  0  0  0
  4  3  4  0  0  0  0
  5  4  4  0  0  0  0
  6  5  4  0  0  0  0
  7  6  4  0  0  0  0
  8  7  4  0  0  0  0
  3  8  4  0  0  0  0
  2  9  1  0  0  0  0
  4 10  1  0  0  0  0
  5 11  1  0  0  0  0
  6 12  1  0  0  0  0
  7 13  1  0  0  0  0
M  END
>  <id_input>
4850

>  <InChIKey>
CSDSSGBPEUDDEE-UHFFFAOYSA-N

>  <substance_name>
pyridine-2-carbaldehyde

>  <casrn>
1121-60-4

>  <Molecular weight>
107.11000061035156

>  <guideline>
OECD Guideline 404 (Acute Dermal Irritation / Corrosion)

>  <species>
rabbit

>  <type_of_coverage>
occlusive

>  <max_duration(hrs)>
4.0

>  <vehicle>
unchanged (no vehicle)

>  <edema/ erythema score>
2.375

>  <max_score>
4.0

>  <reversibility>
0.0

>  <Outcome>
1

>  <StandardizerResult>
Remove Explicit Hydrogens (ID: RemoveExplicitH)
Dearomatize (ID: Dearomatize)
Clear Stereo (ID: ClearStereo)
Wedge Clean (ID: WedgeClean)
Mesomerize (ID: Mesomerize)
Tautomerize (ID: Tautomerize)
Aromatize (ID: Aromatize)
Add Explicit Hydrogens (ID: AddExplicitH)
Neutralize (ID: Neutralize)
Clean 2D (ID: Clean2D)


$$$$

  Mrv1812 02121911042D          

 53 52  0  0  0  0            999 V2000
   -2.5592    4.6263    0.0000 C   0  0  0  0  0  0  0  0  0  0  0  0
   -1.8447    4.2138    0.0000 C   0  0  0  0  0  0  0  0  0  0  0  0
   -1.8447    3.3888    0.0000 C   0  0  0  0  0  0  0  0  0  0  0  0
   -1.1302    4.6263    0.0000 C   0  0  0  0  0  0  0  0  0  0  0  0
   -0.4157    4.2138    0.0000 C   0  0  0  0  0  0  0  0  0  0  0  0
    0.2987    4.6263    0.0000 C   0  0  0  0  0  0  0  0  0  0  0  0
    1.0132    4.2138    0.0000 C   0  0  0  0  0  0  0  0  0  0  0  0
    1.7277    4.6263    0.0000 C   0  0  0  0  0  0  0  0  0  0  0  0
    2.4421    4.2138    0.0000 C   0  0  0  0  0  0  0  0  0  0  0  0
    3.1566    4.6263    0.0000 C   0  0  0  0  0  0  0  0  0  0  0  0
    3.8711    4.2138    0.0000 C   0  0  0  0  0  0  0  0  0  0  0  0
    4.5856    4.6263    0.0000 C   0  0  0  0  0  0  0  0  0  0  0  0
    5.3000    4.2138    0.0000 C   0  0  0  0  0  0  0  0  0  0  0  0
    6.0145    4.6263    0.0000 O   0  0  0  0  0  0  0  0  0  0  0  0
    6.7290    4.2138    0.0000 C   0  0  0  0  0  0  0  0  0  0  0  0
    7.4434    4.6263    0.0000 C   0  0  0  0  0  0  0  0  0  0  0  0
    8.1579    4.2138    0.0000 C   0  0  0  0  0  0  0  0  0  0  0  0
    8.8724    4.6263    0.0000 N   0  0  0  0  0  0  0  0  0  0  0  0
   -2.1467    5.3408    0.0000 H   0  0  0  0  0  0  0  0  0  0  0  0
   -3.2736    5.0388    0.0000 H   0  0  0  0  0  0  0  0  0  0  0  0
   -2.9717    3.9119    0.0000 H   0  0  0  0  0  0  0  0  0  0  0  0
   -2.5592    3.8013    0.0000 H   0  0  0  0  0  0  0  0  0  0  0  0
   -2.4280    2.8055    0.0000 H   0  0  0  0  0  0  0  0  0  0  0  0
   -1.4322    2.6744    0.0000 H   0  0  0  0  0  0  0  0  0  0  0  0
   -1.0478    3.6024    0.0000 H   0  0  0  0  0  0  0  0  0  0  0  0
   -0.7600    5.3636    0.0000 H   0  0  0  0  0  0  0  0  0  0  0  0
   -1.5005    5.3636    0.0000 H   0  0  0  0  0  0  0  0  0  0  0  0
    0.0811    3.5552    0.0000 H   0  0  0  0  0  0  0  0  0  0  0  0
   -0.4157    5.0388    0.0000 H   0  0  0  0  0  0  0  0  0  0  0  0
    0.9307    5.1566    0.0000 H   0  0  0  0  0  0  0  0  0  0  0  0
    0.4420    5.4388    0.0000 H   0  0  0  0  0  0  0  0  0  0  0  0
    0.6429    3.4766    0.0000 H   0  0  0  0  0  0  0  0  0  0  0  0
    1.3835    3.4766    0.0000 H   0  0  0  0  0  0  0  0  0  0  0  0
    2.4507    5.0236    0.0000 H   0  0  0  0  0  0  0  0  0  0  0  0
    1.7626    5.4506    0.0000 H   0  0  0  0  0  0  0  0  0  0  0  0
    2.0719    3.4766    0.0000 H   0  0  0  0  0  0  0  0  0  0  0  0
    2.8124    3.4766    0.0000 H   0  0  0  0  0  0  0  0  0  0  0  0
    3.7863    5.1593    0.0000 H   0  0  0  0  0  0  0  0  0  0  0  0
    3.2944    5.4397    0.0000 H   0  0  0  0  0  0  0  0  0  0  0  0
    3.5008    3.4766    0.0000 H   0  0  0  0  0  0  0  0  0  0  0  0
    4.2413    3.4766    0.0000 H   0  0  0  0  0  0  0  0  0  0  0  0
    5.3087    5.0234    0.0000 H   0  0  0  0  0  0  0  0  0  0  0  0
    4.6210    5.4506    0.0000 H   0  0  0  0  0  0  0  0  0  0  0  0
    4.9298    3.4766    0.0000 H   0  0  0  0  0  0  0  0  0  0  0  0
    5.6703    3.4766    0.0000 H   0  0  0  0  0  0  0  0  0  0  0  0
    6.3587    3.4766    0.0000 H   0  0  0  0  0  0  0  0  0  0  0  0
    7.0992    3.4766    0.0000 H   0  0  0  0  0  0  0  0  0  0  0  0
    7.8137    5.3636    0.0000 H   0  0  0  0  0  0  0  0  0  0  0  0
    7.0732    5.3636    0.0000 H   0  0  0  0  0  0  0  0  0  0  0  0
    7.7876    3.4766    0.0000 H   0  0  0  0  0  0  0  0  0  0  0  0
    8.5282    3.4766    0.0000 H   0  0  0  0  0  0  0  0  0  0  0  0
    9.5869    4.2138    0.0000 H   0  0  0  0  0  0  0  0  0  0  0  0
    8.8724    5.4513    0.0000 H   0  0  0  0  0  0  0  0  0  0  0  0
  1  2  1  0  0  0  0
  2  3  1  0  0  0  0
  2  4  1  0  0  0  0
  4  5  1  0  0  0  0
  5  6  1  0  0  0  0
  6  7  1  0  0  0  0
  7  8  1  0  0  0  0
  8  9  1  0  0  0  0
  9 10  1  0  0  0  0
 10 11  1  0  0  0  0
 11 12  1  0  0  0  0
 12 13  1  0  0  0  0
 13 14  1  0  0  0  0
 14 15  1  0  0  0  0
 15 16  1  0  0  0  0
 16 17  1  0  0  0  0
 17 18  1  0  0  0  0
  1 19  1  0  0  0  0
  1 20  1  0  0  0  0
  1 21  1  0  0  0  0
  2 22  1  0  0  0  0
  3 23  1  0  0  0  0
  3 24  1  0  0  0  0
  3 25  1  0  0  0  0
  4 26  1  0  0  0  0
  4 27  1  0  0  0  0
  5 28  1  0  0  0  0
  5 29  1  0  0  0  0
  6 30  1  0  0  0  0
  6 31  1  0  0  0  0
  7 32  1  0  0  0  0
  7 33  1  0  0  0  0
  8 34  1  0  0  0  0
  8 35  1  0  0  0  0
  9 36  1  0  0  0  0
  9 37  1  0  0  0  0
 10 38  1  0  0  0  0
 10 39  1  0  0  0  0
 11 40  1  0  0  0  0
 11 41  1  0  0  0  0
 12 42  1  0  0  0  0
 12 43  1  0  0  0  0
 13 44  1  0  0  0  0
 13 45  1  0  0  0  0
 15 46  1  0  0  0  0
 15 47  1  0  0  0  0
 16 48  1  0  0  0  0
 16 49  1  0  0  0  0
 17 50  1  0  0  0  0
 17 51  1  0  0  0  0
 18 52  1  0  0  0  0
 18 53  1  0  0  0  0
M  END
>  <id_input>
2709

>  <InChIKey>
CUFBDUDYFHCIOH-UHFFFAOYSA-N

>  <substance_name>
3-[(11-methyldodecyl)oxy]propan-1-amine

>  <casrn>
50977-10-1

>  <Molecular weight>
257.4552001953125

>  <guideline>
OECD Guideline 404 (Acute Dermal Irritation / Corrosion)

>  <species>
rabbit

>  <type_of_coverage>
semiocclusive

>  <vehicle>
unchanged (no vehicle)

>  <edema/ erythema score>
4.0

>  <max_score>
4.0

>  <reversibility>
1.0

>  <Outcome>
1

>  <StandardizerResult>
Remove Explicit Hydrogens (ID: RemoveExplicitH)
Clear Stereo (ID: ClearStereo)
Wedge Clean (ID: WedgeClean)
Mesomerize (ID: Mesomerize)
Tautomerize (ID: Tautomerize)
Add Explicit Hydrogens (ID: AddExplicitH)
Neutralize (ID: Neutralize)
Clean 2D (ID: Clean2D)


$$$$

  Mrv1812 02121911042D          

 17 17  0  0  0  0            999 V2000
    1.3371    1.1677    0.0000 N   0  0  0  0  0  0  0  0  0  0  0  0
    0.6226    0.7552    0.0000 C   0  0  0  0  0  0  0  0  0  0  0  0
   -0.0918    1.1677    0.0000 C   0  0  0  0  0  0  0  0  0  0  0  0
   -0.8063    0.7552    0.0000 C   0  0  0  0  0  0  0  0  0  0  0  0
   -0.8063   -0.0698    0.0000 C   0  0  0  0  0  0  0  0  0  0  0  0
   -1.5208   -0.4823    0.0000 Cl  0  0  0  0  0  0  0  0  0  0  0  0
   -0.0918   -0.4823    0.0000 C   0  0  0  0  0  0  0  0  0  0  0  0
    0.6226   -0.0698    0.0000 C   0  0  0  0  0  0  0  0  0  0  0  0
    1.3371   -0.4823    0.0000 C   0  0  0  0  0  0  0  0  0  0  0  0
    2.0516   -0.8948    0.0000 F   0  0  0  0  0  0  0  0  0  0  0  0
    1.7496    0.2322    0.0000 F   0  0  0  0  0  0  0  0  0  0  0  0
    0.9246   -1.1968    0.0000 F   0  0  0  0  0  0  0  0  0  0  0  0
    2.0516    0.7552    0.0000 H   0  0  0  0  0  0  0  0  0  0  0  0
    1.3371    1.9927    0.0000 H   0  0  0  0  0  0  0  0  0  0  0  0
   -0.0918    1.9927    0.0000 H   0  0  0  0  0  0  0  0  0  0  0  0
   -1.5208    1.1677    0.0000 H   0  0  0  0  0  0  0  0  0  0  0  0
   -0.0918   -1.3073    0.0000 H   0  0  0  0  0  0  0  0  0  0  0  0
  1  2  1  0  0  0  0
  3  2  4  0  0  0  0
  4  3  4  0  0  0  0
  5  4  4  0  0  0  0
  5  6  1  0  0  0  0
  7  5  4  0  0  0  0
  8  7  4  0  0  0  0
  8  9  1  0  0  0  0
  9 10  1  0  0  0  0
  9 11  1  0  0  0  0
  9 12  1  0  0  0  0
  2  8  4  0  0  0  0
  1 13  1  0  0  0  0
  1 14  1  0  0  0  0
  3 15  1  0  0  0  0
  4 16  1  0  0  0  0
  7 17  1  0  0  0  0
M  END
>  <id_input>
2888

>  <InChIKey>
CVINWVPRKDIGLL-UHFFFAOYSA-N

>  <substance_name>
4-chloro-2-(trifluoromethyl)aniline

>  <casrn>
445-03-4

>  <Molecular weight>
195.56951904296875

>  <guideline>
EU Method B.4 (Acute Toxicity: Dermal Irritation / Corrosion)

>  <species>
rabbit

>  <edema/ erythema score>
2.85

>  <max_score>
4.0

>  <reversibility>
0.0

>  <Outcome>
1

>  <StandardizerResult>
Remove Explicit Hydrogens (ID: RemoveExplicitH)
Dearomatize (ID: Dearomatize)
Clear Stereo (ID: ClearStereo)
Wedge Clean (ID: WedgeClean)
Mesomerize (ID: Mesomerize)
Tautomerize (ID: Tautomerize)
Aromatize (ID: Aromatize)
Add Explicit Hydrogens (ID: AddExplicitH)
Neutralize (ID: Neutralize)
Clean 2D (ID: Clean2D)


$$$$

  Mrv1812 02121911042D          

 29 28  0  0  0  0            999 V2000
   -3.2485   -0.8986    0.0000 C   0  0  0  0  0  0  0  0  0  0  0  0
   -2.5341   -0.4861    0.0000 C   0  0  0  0  0  0  0  0  0  0  0  0
   -1.8196   -0.8986    0.0000 C   0  0  0  0  0  0  0  0  0  0  0  0
   -1.1051   -0.4861    0.0000 C   0  0  0  0  0  0  0  0  0  0  0  0
   -0.3907   -0.8986    0.0000 C   0  0  0  0  0  0  0  0  0  0  0  0
    0.3238   -0.4861    0.0000 C   0  0  0  0  0  0  0  0  0  0  0  0
    1.0383   -0.8986    0.0000 C   0  0  0  0  0  0  0  0  0  0  0  0
    1.7528   -0.4861    0.0000 C   0  0  0  0  0  0  0  0  0  0  0  0
    1.7528    0.3389    0.0000 C   0  0  0  0  0  0  0  0  0  0  0  0
    2.4672    0.7514    0.0000 C   0  0  0  0  0  0  0  0  0  0  0  0
    2.4672    1.5764    0.0000 O   0  0  0  0  0  0  0  0  0  0  0  0
   -3.6610   -0.1841    0.0000 H   0  0  0  0  0  0  0  0  0  0  0  0
   -3.9630   -1.3111    0.0000 H   0  0  0  0  0  0  0  0  0  0  0  0
   -2.8360   -1.6131    0.0000 H   0  0  0  0  0  0  0  0  0  0  0  0
   -2.1638    0.2511    0.0000 H   0  0  0  0  0  0  0  0  0  0  0  0
   -2.9043    0.2511    0.0000 H   0  0  0  0  0  0  0  0  0  0  0  0
   -2.1899   -1.6358    0.0000 H   0  0  0  0  0  0  0  0  0  0  0  0
   -1.4493   -1.6358    0.0000 H   0  0  0  0  0  0  0  0  0  0  0  0
   -0.7349    0.2511    0.0000 H   0  0  0  0  0  0  0  0  0  0  0  0
   -1.4754    0.2511    0.0000 H   0  0  0  0  0  0  0  0  0  0  0  0
   -0.7609   -1.6358    0.0000 H   0  0  0  0  0  0  0  0  0  0  0  0
   -0.0204   -1.6358    0.0000 H   0  0  0  0  0  0  0  0  0  0  0  0
    0.3238    0.3389    0.0000 H   0  0  0  0  0  0  0  0  0  0  0  0
    1.0383   -1.7236    0.0000 H   0  0  0  0  0  0  0  0  0  0  0  0
    2.2061   -1.1754    0.0000 H   0  0  0  0  0  0  0  0  0  0  0  0
    2.5764   -0.5341    0.0000 H   0  0  0  0  0  0  0  0  0  0  0  0
    1.2994    1.0282    0.0000 H   0  0  0  0  0  0  0  0  0  0  0  0
    0.9292    0.3869    0.0000 H   0  0  0  0  0  0  0  0  0  0  0  0
    3.1817    0.3389    0.0000 H   0  0  0  0  0  0  0  0  0  0  0  0
  1  2  1  0  0  0  0
  2  3  1  0  0  0  0
  3  4  1  0  0  0  0
  4  5  1  0  0  0  0
  6  5  1  4  0  0  0
  6  7  2  0  0  0  0
  7  8  1  0  0  0  0
  8  9  1  0  0  0  0
  9 10  1  0  0  0  0
 10 11  2  0  0  0  0
  1 12  1  0  0  0  0
  1 13  1  0  0  0  0
  1 14  1  0  0  0  0
  2 15  1  0  0  0  0
  2 16  1  0  0  0  0
  3 17  1  0  0  0  0
  3 18  1  0  0  0  0
  4 19  1  0  0  0  0
  4 20  1  0  0  0  0
  5 21  1  0  0  0  0
  5 22  1  0  0  0  0
  6 23  1  0  0  0  0
  7 24  1  0  0  0  0
  8 25  1  0  0  0  0
  8 26  1  0  0  0  0
  9 27  1  0  0  0  0
  9 28  1  0  0  0  0
 10 29  1  0  0  0  0
M  END
>  <id_input>
4070

>  <InChIKey>
CWRKZMLUDFBPAO-UHFFFAOYSA-N

>  <substance_name>
dec-4-enal

>  <casrn>
65405-70-1

>  <Molecular weight>
154.24932861328125

>  <guideline>
EU Method B.4 (Acute Toxicity: Dermal Irritation / Corrosion)

>  <species>
rabbit

>  <type_of_coverage>
semiocclusive

>  <max_duration(hrs)>
4.0

>  <vehicle>
unchanged (no vehicle)

>  <edema/ erythema score>
1.66666666666666

>  <max_score>
2.0

>  <reversibility>
0.0

>  <Outcome>
1

>  <StandardizerResult>
Remove Explicit Hydrogens (ID: RemoveExplicitH)
Clear Stereo (ID: ClearStereo)
Wedge Clean (ID: WedgeClean)
Mesomerize (ID: Mesomerize)
Tautomerize (ID: Tautomerize)
Add Explicit Hydrogens (ID: AddExplicitH)
Neutralize (ID: Neutralize)
Clean 2D (ID: Clean2D)


$$$$

  Mrv1812 02121911042D          

 22 23  0  0  0  0            999 V2000
   -1.5871   -0.1776    0.0000 C   0  0  0  0  0  0  0  0  0  0  0  0
   -1.5871    0.6474    0.0000 C   0  0  0  0  0  0  0  0  0  0  0  0
   -0.8726    1.0599    0.0000 C   0  0  0  0  0  0  0  0  0  0  0  0
   -0.1582    0.6474    0.0000 C   0  0  0  0  0  0  0  0  0  0  0  0
    0.5563    1.0599    0.0000 C   0  0  0  0  0  0  0  0  0  0  0  0
    1.2708    0.6474    0.0000 C   0  0  0  0  0  0  0  0  0  0  0  0
    1.2708   -0.1776    0.0000 C   0  0  0  0  0  0  0  0  0  0  0  0
    0.5563   -0.5901    0.0000 C   0  0  0  0  0  0  0  0  0  0  0  0
   -0.1582   -0.1776    0.0000 C   0  0  0  0  0  0  0  0  0  0  0  0
   -0.8726   -0.5901    0.0000 C   0  0  0  0  0  0  0  0  0  0  0  0
   -2.4107   -0.2256    0.0000 H   0  0  0  0  0  0  0  0  0  0  0  0
   -2.0404   -0.8669    0.0000 H   0  0  0  0  0  0  0  0  0  0  0  0
   -2.0404    1.3367    0.0000 H   0  0  0  0  0  0  0  0  0  0  0  0
   -2.4107    0.6954    0.0000 H   0  0  0  0  0  0  0  0  0  0  0  0
   -0.5024    1.7971    0.0000 H   0  0  0  0  0  0  0  0  0  0  0  0
   -1.2429    1.7971    0.0000 H   0  0  0  0  0  0  0  0  0  0  0  0
    0.5563    1.8849    0.0000 H   0  0  0  0  0  0  0  0  0  0  0  0
    1.9853    1.0599    0.0000 H   0  0  0  0  0  0  0  0  0  0  0  0
    1.9853   -0.5901    0.0000 H   0  0  0  0  0  0  0  0  0  0  0  0
    0.5563   -1.4151    0.0000 H   0  0  0  0  0  0  0  0  0  0  0  0
   -1.2429   -1.3273    0.0000 H   0  0  0  0  0  0  0  0  0  0  0  0
   -0.5024   -1.3273    0.0000 H   0  0  0  0  0  0  0  0  0  0  0  0
  2  1  1  0  0  0  0
  3  2  1  0  0  0  0
  4  3  1  0  0  0  0
  4  5  4  0  0  0  0
  5  6  4  0  0  0  0
  6  7  4  0  0  0  0
  7  8  4  0  0  0  0
  8  9  4  0  0  0  0
 10  9  1  0  0  0  0
  1 10  1  0  0  0  0
  9  4  4  0  0  0  0
  1 11  1  0  0  0  0
  1 12  1  0  0  0  0
  2 13  1  0  0  0  0
  2 14  1  0  0  0  0
  3 15  1  0  0  0  0
  3 16  1  0  0  0  0
  5 17  1  0  0  0  0
  6 18  1  0  0  0  0
  7 19  1  0  0  0  0
  8 20  1  0  0  0  0
 10 21  1  0  0  0  0
 10 22  1  0  0  0  0
M  END
>  <id_input>
1701

>  <InChIKey>
CXWXQJXEFPUFDZ-UHFFFAOYSA-N

>  <substance_name>
1,2,3,4-tetrahydronaphthalene

>  <casrn>
119-64-2

>  <Molecular weight>
132.20228576660156

>  <guideline>
OECD Guideline 404 (Acute Dermal Irritation / Corrosion)

>  <species>
rabbit

>  <type_of_coverage>
occlusive

>  <max_duration(hrs)>
4.0

>  <vehicle>
unchanged (no vehicle)

>  <edema/ erythema score>
3.11

>  <max_score>
4.0

>  <reversibility>
1.0

>  <Outcome>
1

>  <StandardizerResult>
Remove Explicit Hydrogens (ID: RemoveExplicitH)
Dearomatize (ID: Dearomatize)
Clear Stereo (ID: ClearStereo)
Wedge Clean (ID: WedgeClean)
Mesomerize (ID: Mesomerize)
Tautomerize (ID: Tautomerize)
Aromatize (ID: Aromatize)
Add Explicit Hydrogens (ID: AddExplicitH)
Neutralize (ID: Neutralize)
Clean 2D (ID: Clean2D)


$$$$

  Mrv1812 02121911042D          

  6  5  0  0  0  0            999 V2000
    1.1822    0.9207    0.0000 Cl  0  0  0  0  0  0  0  0  0  0  0  0
    0.7697    0.2063    0.0000 C   0  0  0  0  0  0  0  0  0  0  0  0
    1.1822   -0.5082    0.0000 Cl  0  0  0  0  0  0  0  0  0  0  0  0
   -0.0553    0.2063    0.0000 C   0  0  0  0  0  0  0  0  0  0  0  0
   -0.4678   -0.5082    0.0000 Cl  0  0  0  0  0  0  0  0  0  0  0  0
   -0.4678    0.9207    0.0000 Cl  0  0  0  0  0  0  0  0  0  0  0  0
  2  1  1  0  0  0  0
  2  3  1  0  0  0  0
  2  4  2  0  0  0  0
  4  5  1  0  0  0  0
  4  6  1  0  0  0  0
M  END
>  <id_input>
5007

>  <InChIKey>
CYTYCFOTNPOANT-UHFFFAOYSA-N

>  <substance_name>
tetrachloroethene

>  <casrn>
127-18-4

>  <Molecular weight>
165.83340454101562

>  <guideline>
OECD Guideline 404 (Acute Dermal Irritation / Corrosion)

>  <species>
rabbit

>  <type_of_coverage>
occlusive

>  <max_duration(hrs)>
4.0

>  <vehicle>
other: stabilized with ionol

>  <edema/ erythema score>
4.0

>  <max_score>
4.0

>  <reversibility>
0.0

>  <Outcome>
1

>  <StandardizerResult>
Clear Stereo (ID: ClearStereo)
Wedge Clean (ID: WedgeClean)
Mesomerize (ID: Mesomerize)
Tautomerize (ID: Tautomerize)
Clean 2D (ID: Clean2D)


$$$$

  Mrv1812 02121911042D          

 29 29  0  0  0  0            999 V2000
    2.0314    2.3736    0.0000 C   0  0  0  0  0  0  0  0  0  0  0  0
    1.3170    1.9611    0.0000 C   0  0  0  0  0  0  0  0  0  0  0  0
    0.6025    2.3736    0.0000 C   0  0  0  0  0  0  0  0  0  0  0  0
   -0.1120    1.9611    0.0000 C   0  0  0  0  0  0  0  0  0  0  0  0
   -0.1120    1.1361    0.0000 O   0  0  0  0  0  0  0  0  0  0  0  0
    0.6025    0.7236    0.0000 C   0  0  0  0  0  0  0  0  0  0  0  0
    1.3170    1.1361    0.0000 C   0  0  0  0  0  0  0  0  0  0  0  0
    0.6025   -0.1014    0.0000 C   0  0  0  0  0  0  0  0  0  0  0  0
   -0.1120   -0.5139    0.0000 C   0  0  0  0  0  0  0  0  0  0  0  0
   -0.1120   -1.3389    0.0000 C   0  0  0  0  0  0  0  0  0  0  0  0
   -0.8265   -0.1014    0.0000 C   0  0  0  0  0  0  0  0  0  0  0  0
    2.4439    1.6591    0.0000 H   0  0  0  0  0  0  0  0  0  0  0  0
    2.7459    2.7861    0.0000 H   0  0  0  0  0  0  0  0  0  0  0  0
    1.6189    3.0880    0.0000 H   0  0  0  0  0  0  0  0  0  0  0  0
    1.3170    2.7861    0.0000 H   0  0  0  0  0  0  0  0  0  0  0  0
    0.4592    3.1860    0.0000 H   0  0  0  0  0  0  0  0  0  0  0  0
   -0.0295    2.9039    0.0000 H   0  0  0  0  0  0  0  0  0  0  0  0
   -0.8711    2.2841    0.0000 H   0  0  0  0  0  0  0  0  0  0  0  0
   -0.8964    1.7054    0.0000 H   0  0  0  0  0  0  0  0  0  0  0  0
   -0.1120    0.3111    0.0000 H   0  0  0  0  0  0  0  0  0  0  0  0
    1.7703    0.4468    0.0000 H   0  0  0  0  0  0  0  0  0  0  0  0
    2.1406    1.0881    0.0000 H   0  0  0  0  0  0  0  0  0  0  0  0
    1.3170   -0.5139    0.0000 H   0  0  0  0  0  0  0  0  0  0  0  0
   -0.9370   -1.3389    0.0000 H   0  0  0  0  0  0  0  0  0  0  0  0
   -0.1120   -2.1639    0.0000 H   0  0  0  0  0  0  0  0  0  0  0  0
    0.7130   -1.3389    0.0000 H   0  0  0  0  0  0  0  0  0  0  0  0
   -1.0400    0.6954    0.0000 H   0  0  0  0  0  0  0  0  0  0  0  0
   -1.6515   -0.1014    0.0000 H   0  0  0  0  0  0  0  0  0  0  0  0
   -1.0400   -0.8983    0.0000 H   0  0  0  0  0  0  0  0  0  0  0  0
  1  2  1  0  0  0  0
  3  2  1  0  0  0  0
  4  3  1  0  0  0  0
  5  4  1  0  0  0  0
  6  5  1  0  0  0  0
  7  6  1  0  0  0  0
  6  8  1  0  0  0  0
  8  9  2  0  0  0  0
  9 10  1  0  0  0  0
  9 11  1  0  0  0  0
  2  7  1  0  0  0  0
  1 12  1  0  0  0  0
  1 13  1  0  0  0  0
  1 14  1  0  0  0  0
  2 15  1  0  0  0  0
  3 16  1  0  0  0  0
  3 17  1  0  0  0  0
  4 18  1  0  0  0  0
  4 19  1  0  0  0  0
  6 20  1  0  0  0  0
  7 21  1  0  0  0  0
  7 22  1  0  0  0  0
  8 23  1  0  0  0  0
 10 24  1  0  0  0  0
 10 25  1  0  0  0  0
 10 26  1  0  0  0  0
 11 27  1  0  0  0  0
 11 28  1  0  0  0  0
 11 29  1  0  0  0  0
M  END
>  <id_input>
2914

>  <InChIKey>
CZCBTSFUTPZVKJ-UHFFFAOYSA-N

>  <substance_name>
4-methyl-2-(2-methylprop-1-en-1-yl)oxane

>  <casrn>
16409-43-1

>  <Molecular weight>
154.24932861328125

>  <guideline>
OECD Guideline 404 (Acute Dermal Irritation / Corrosion)

>  <species>
rabbit

>  <type_of_coverage>
semiocclusive

>  <max_duration(hrs)>
4.0

>  <vehicle>
unchanged (no vehicle)

>  <edema/ erythema score>
3.1

>  <max_score>
4.0

>  <reversibility>
1.0

>  <Outcome>
1

>  <StandardizerResult>
Remove Explicit Hydrogens (ID: RemoveExplicitH)
Clear Stereo (ID: ClearStereo)
Wedge Clean (ID: WedgeClean)
Mesomerize (ID: Mesomerize)
Tautomerize (ID: Tautomerize)
Add Explicit Hydrogens (ID: AddExplicitH)
Neutralize (ID: Neutralize)
Clean 2D (ID: Clean2D)


$$$$

  Mrv1812 02121911042D          

 39 38  0  0  0  0            999 V2000
    1.7633    4.0887    0.0000 C   0  0  0  0  0  0  0  0  0  0  0  0
    2.1758    3.3743    0.0000 C   0  0  0  0  0  0  0  0  0  0  0  0
    3.0008    3.3743    0.0000 C   0  0  0  0  0  0  0  0  0  0  0  0
    1.7633    2.6598    0.0000 C   0  0  0  0  0  0  0  0  0  0  0  0
    0.9383    2.6598    0.0000 O   0  0  0  0  0  0  0  0  0  0  0  0
    2.1758    1.9453    0.0000 C   0  0  0  0  0  0  0  0  0  0  0  0
    1.4613    1.5328    0.0000 C   0  0  0  0  0  0  0  0  0  0  0  0
    2.8902    2.3578    0.0000 C   0  0  0  0  0  0  0  0  0  0  0  0
    2.5883    1.2309    0.0000 C   0  0  0  0  0  0  0  0  0  0  0  0
    2.1758    0.5164    0.0000 O   0  0  0  0  0  0  0  0  0  0  0  0
    2.5883   -0.1981    0.0000 C   0  0  0  0  0  0  0  0  0  0  0  0
    3.4133   -0.1981    0.0000 O   0  0  0  0  0  0  0  0  0  0  0  0
    2.1758   -0.9126    0.0000 C   0  0  0  0  0  0  0  0  0  0  0  0
    2.5883   -1.6270    0.0000 C   0  0  0  0  0  0  0  0  0  0  0  0
    1.3508   -0.9126    0.0000 C   0  0  0  0  0  0  0  0  0  0  0  0
    2.4777    4.5012    0.0000 H   0  0  0  0  0  0  0  0  0  0  0  0
    1.3508    4.8032    0.0000 H   0  0  0  0  0  0  0  0  0  0  0  0
    1.0488    3.6762    0.0000 H   0  0  0  0  0  0  0  0  0  0  0  0
    2.5883    4.0887    0.0000 H   0  0  0  0  0  0  0  0  0  0  0  0
    2.7872    2.5774    0.0000 H   0  0  0  0  0  0  0  0  0  0  0  0
    3.7152    2.9618    0.0000 H   0  0  0  0  0  0  0  0  0  0  0  0
    3.5841    3.9576    0.0000 H   0  0  0  0  0  0  0  0  0  0  0  0
    1.3508    3.3743    0.0000 H   0  0  0  0  0  0  0  0  0  0  0  0
    0.2238    2.2473    0.0000 H   0  0  0  0  0  0  0  0  0  0  0  0
    1.0488    2.2473    0.0000 H   0  0  0  0  0  0  0  0  0  0  0  0
    0.7468    1.1203    0.0000 H   0  0  0  0  0  0  0  0  0  0  0  0
    1.8738    0.8184    0.0000 H   0  0  0  0  0  0  0  0  0  0  0  0
    2.9805    1.5378    0.0000 H   0  0  0  0  0  0  0  0  0  0  0  0
    3.6773    2.1106    0.0000 H   0  0  0  0  0  0  0  0  0  0  0  0
    3.4331    2.9790    0.0000 H   0  0  0  0  0  0  0  0  0  0  0  0
    2.9064    0.4696    0.0000 H   0  0  0  0  0  0  0  0  0  0  0  0
    3.3865    1.0224    0.0000 H   0  0  0  0  0  0  0  0  0  0  0  0
    3.0008   -0.9126    0.0000 H   0  0  0  0  0  0  0  0  0  0  0  0
    1.7914   -1.8406    0.0000 H   0  0  0  0  0  0  0  0  0  0  0  0
    2.5883   -2.4520    0.0000 H   0  0  0  0  0  0  0  0  0  0  0  0
    3.3851   -1.8406    0.0000 H   0  0  0  0  0  0  0  0  0  0  0  0
    1.3508   -0.0876    0.0000 H   0  0  0  0  0  0  0  0  0  0  0  0
    0.5258   -0.9126    0.0000 H   0  0  0  0  0  0  0  0  0  0  0  0
    1.3508   -1.7376    0.0000 H   0  0  0  0  0  0  0  0  0  0  0  0
  1  2  1  0  0  0  0
  2  3  1  0  0  0  0
  2  4  1  0  0  0  0
  4  5  1  0  0  0  0
  4  6  1  0  0  0  0
  6  7  1  0  0  0  0
  6  8  1  0  0  0  0
  6  9  1  0  0  0  0
  9 10  1  0  0  0  0
 10 11  1  0  0  0  0
 11 12  2  0  0  0  0
 11 13  1  0  0  0  0
 13 14  1  0  0  0  0
 13 15  1  0  0  0  0
  1 16  1  0  0  0  0
  1 17  1  0  0  0  0
  1 18  1  0  0  0  0
  2 19  1  0  0  0  0
  3 20  1  0  0  0  0
  3 21  1  0  0  0  0
  3 22  1  0  0  0  0
  4 23  1  0  0  0  0
  5 24  1  0  0  0  0
  7 25  1  0  0  0  0
  7 26  1  0  0  0  0
  7 27  1  0  0  0  0
  8 28  1  0  0  0  0
  8 29  1  0  0  0  0
  8 30  1  0  0  0  0
  9 31  1  0  0  0  0
  9 32  1  0  0  0  0
 13 33  1  0  0  0  0
 14 34  1  0  0  0  0
 14 35  1  0  0  0  0
 14 36  1  0  0  0  0
 15 37  1  0  0  0  0
 15 38  1  0  0  0  0
 15 39  1  0  0  0  0
M  END
>  <id_input>
1938

>  <InChIKey>
DAFHKNAQFPVRKR-UHFFFAOYSA-N

>  <substance_name>
1-hydroxy-2,2,4-trimethylpentan-3-yl 2-methylpropanoate 3-hydroxy-2,2,4-trimethylpentyl 2-methylpropanoate

>  <casrn>
25265-77-4

>  <Molecular weight>
216.31716918945312

>  <guideline>
EU Method B.4 (Acute Toxicity: Dermal Irritation / Corrosion)

>  <species>
rabbit

>  <type_of_coverage>
semiocclusive

>  <max_duration(hrs)>
4.0

>  <vehicle>
unchanged (no vehicle)

>  <edema/ erythema score>
1.66666666666666

>  <max_score>
2.0

>  <reversibility>
0.0

>  <Outcome>
1

>  <StandardizerResult>
Remove Explicit Hydrogens (ID: RemoveExplicitH)
Clear Stereo (ID: ClearStereo)
Wedge Clean (ID: WedgeClean)
Mesomerize (ID: Mesomerize)
Tautomerize (ID: Tautomerize)
Add Explicit Hydrogens (ID: AddExplicitH)
Neutralize (ID: Neutralize)
Clean 2D (ID: Clean2D)


$$$$

  Mrv1812 02121911042D          

 41 40  0  0  0  0            999 V2000
    0.8974   -2.0858    0.0000 C   0  0  0  0  0  0  0  0  0  0  0  0
    1.6118   -1.6733    0.0000 C   0  0  0  0  0  0  0  0  0  0  0  0
    1.6118   -0.8483    0.0000 C   0  0  0  0  0  0  0  0  0  0  0  0
    2.4368   -0.8483    0.0000 C   0  0  0  0  0  0  0  0  0  0  0  0
    2.8493   -1.5628    0.0000 O   0  0  0  0  0  0  0  0  0  0  0  0
    3.6743   -1.5628    0.0000 C   0  0  0  0  0  0  0  0  0  0  0  0
    4.0868   -0.8483    0.0000 O   0  0  0  0  0  0  0  0  0  0  0  0
    4.0868   -2.2772    0.0000 C   0  0  0  0  0  0  0  0  0  0  0  0
    4.9118   -2.2772    0.0000 C   0  0  0  0  0  0  0  0  0  0  0  0
    0.7868   -0.8483    0.0000 C   0  0  0  0  0  0  0  0  0  0  0  0
    0.3743   -0.1338    0.0000 O   0  0  0  0  0  0  0  0  0  0  0  0
   -0.4507   -0.1338    0.0000 C   0  0  0  0  0  0  0  0  0  0  0  0
   -0.8632   -0.8483    0.0000 O   0  0  0  0  0  0  0  0  0  0  0  0
   -0.8632    0.5807    0.0000 C   0  0  0  0  0  0  0  0  0  0  0  0
   -1.6882    0.5807    0.0000 C   0  0  0  0  0  0  0  0  0  0  0  0
    1.6118   -0.0233    0.0000 C   0  0  0  0  0  0  0  0  0  0  0  0
    2.3263    0.3892    0.0000 O   0  0  0  0  0  0  0  0  0  0  0  0
    3.0408   -0.0233    0.0000 C   0  0  0  0  0  0  0  0  0  0  0  0
    3.0408   -0.8483    0.0000 O   0  0  0  0  0  0  0  0  0  0  0  0
    3.7553    0.3892    0.0000 C   0  0  0  0  0  0  0  0  0  0  0  0
    4.4697   -0.0233    0.0000 C   0  0  0  0  0  0  0  0  0  0  0  0
    0.4849   -1.3713    0.0000 H   0  0  0  0  0  0  0  0  0  0  0  0
    0.1829   -2.4983    0.0000 H   0  0  0  0  0  0  0  0  0  0  0  0
    1.3099   -2.8003    0.0000 H   0  0  0  0  0  0  0  0  0  0  0  0
    2.0652   -2.3626    0.0000 H   0  0  0  0  0  0  0  0  0  0  0  0
    2.4354   -1.7212    0.0000 H   0  0  0  0  0  0  0  0  0  0  0  0
    2.7190   -0.0730    0.0000 H   0  0  0  0  0  0  0  0  0  0  0  0
    2.1547   -0.0730    0.0000 H   0  0  0  0  0  0  0  0  0  0  0  0
    3.6743   -2.9917    0.0000 H   0  0  0  0  0  0  0  0  0  0  0  0
    5.3243   -2.9917    0.0000 H   0  0  0  0  0  0  0  0  0  0  0  0
    5.3243   -1.5628    0.0000 H   0  0  0  0  0  0  0  0  0  0  0  0
    1.1993   -1.5628    0.0000 H   0  0  0  0  0  0  0  0  0  0  0  0
   -0.0382   -0.8483    0.0000 H   0  0  0  0  0  0  0  0  0  0  0  0
   -0.4507    1.2951    0.0000 H   0  0  0  0  0  0  0  0  0  0  0  0
   -2.1007    1.2951    0.0000 H   0  0  0  0  0  0  0  0  0  0  0  0
   -2.1007   -0.1338    0.0000 H   0  0  0  0  0  0  0  0  0  0  0  0
    1.1585    0.6660    0.0000 H   0  0  0  0  0  0  0  0  0  0  0  0
    0.7882    0.0247    0.0000 H   0  0  0  0  0  0  0  0  0  0  0  0
    3.7553    1.2142    0.0000 H   0  0  0  0  0  0  0  0  0  0  0  0
    5.2771   -0.1931    0.0000 H   0  0  0  0  0  0  0  0  0  0  0  0
    5.0325    0.5799    0.0000 H   0  0  0  0  0  0  0  0  0  0  0  0
  1  2  1  0  0  0  0
  2  3  1  0  0  0  0
  3  4  1  0  0  0  0
  4  5  1  0  0  0  0
  5  6  1  0  0  0  0
  6  7  2  0  0  0  0
  6  8  1  0  0  0  0
  8  9  2  0  0  0  0
  3 10  1  0  0  0  0
 10 11  1  0  0  0  0
 11 12  1  0  0  0  0
 12 13  2  0  0  0  0
 12 14  1  0  0  0  0
 14 15  2  0  0  0  0
  3 16  1  0  0  0  0
 16 17  1  0  0  0  0
 17 18  1  0  0  0  0
 18 19  2  0  0  0  0
 18 20  1  0  0  0  0
 20 21  2  0  0  0  0
  1 22  1  0  0  0  0
  1 23  1  0  0  0  0
  1 24  1  0  0  0  0
  2 25  1  0  0  0  0
  2 26  1  0  0  0  0
  4 27  1  0  0  0  0
  4 28  1  0  0  0  0
  8 29  1  4  0  0  0
  9 30  1  0  0  0  0
  9 31  1  0  0  0  0
 10 32  1  0  0  0  0
 10 33  1  0  0  0  0
 14 34  1  0  0  0  0
 15 35  1  0  0  0  0
 15 36  1  0  0  0  0
 16 37  1  0  0  0  0
 16 38  1  0  0  0  0
 20 39  1  4  0  0  0
 21 40  1  0  0  0  0
 21 41  1  0  0  0  0
M  END
>  <id_input>
2095

>  <InChIKey>
DAKWPKUUDNSNPN-UHFFFAOYSA-N

>  <substance_name>
2,2-bis[(prop-2-enoyloxy)methyl]butyl prop-2-enoate

>  <casrn>
15625-89-5

>  <Molecular weight>
296.3157043457031

>  <guideline>
OECD Guideline 404 (Acute Dermal Irritation / Corrosion)

>  <edema/ erythema score>
2.0

>  <max_score>
4.0

>  <reversibility>
0.0

>  <Outcome>
1

>  <StandardizerResult>
Remove Explicit Hydrogens (ID: RemoveExplicitH)
Clear Stereo (ID: ClearStereo)
Wedge Clean (ID: WedgeClean)
Mesomerize (ID: Mesomerize)
Tautomerize (ID: Tautomerize)
Add Explicit Hydrogens (ID: AddExplicitH)
Neutralize (ID: Neutralize)
Clean 2D (ID: Clean2D)


$$$$

  Mrv1812 02121911042D          

 13 12  0  0  0  0            999 V2000
    0.0000   -0.0042    0.0000 C   0  0  0  0  0  0  0  0  0  0  0  0
    0.7145    0.4083    0.0000 C   0  0  0  0  0  0  0  0  0  0  0  0
    1.4290   -0.0042    0.0000 O   0  0  0  0  0  0  0  0  0  0  0  0
    2.1434    0.4083    0.0000 C   0  0  0  0  0  0  0  0  0  0  0  0
    2.1434    1.2333    0.0000 O   0  0  0  0  0  0  0  0  0  0  0  0
    2.8579   -0.0042    0.0000 C   0  0  0  0  0  0  0  0  0  0  0  0
    3.5724    0.4083    0.0000 O   0  0  0  0  0  0  0  0  0  0  0  0
   -0.4125    0.7103    0.0000 H   0  0  0  0  0  0  0  0  0  0  0  0
   -0.7145   -0.4167    0.0000 H   0  0  0  0  0  0  0  0  0  0  0  0
    0.4125   -0.7186    0.0000 H   0  0  0  0  0  0  0  0  0  0  0  0
    1.0847    1.1456    0.0000 H   0  0  0  0  0  0  0  0  0  0  0  0
    0.3442    1.1456    0.0000 H   0  0  0  0  0  0  0  0  0  0  0  0
    2.8579   -0.8292    0.0000 H   0  0  0  0  0  0  0  0  0  0  0  0
  1  2  1  0  0  0  0
  2  3  1  0  0  0  0
  3  4  1  0  0  0  0
  4  5  2  0  0  0  0
  4  6  1  0  0  0  0
  6  7  2  0  0  0  0
  1  8  1  0  0  0  0
  1  9  1  0  0  0  0
  1 10  1  0  0  0  0
  2 11  1  0  0  0  0
  2 12  1  0  0  0  0
  6 13  1  0  0  0  0
M  END
>  <id_input>
4356

>  <InChIKey>
DBPFRRFGLYGEJI-UHFFFAOYSA-N

>  <substance_name>
ethyl glyoxylate

>  <casrn>
924-44-7

>  <Molecular weight>
102.08863830566406

>  <guideline>
EU Method B.4 (Acute Toxicity: Dermal Irritation / Corrosion)

>  <species>
rabbit

>  <type_of_coverage>
semiocclusive

>  <max_duration(hrs)>
4.0

>  <vehicle>
unchanged (no vehicle)

>  <edema/ erythema score>
2.675

>  <max_score>
4.0

>  <reversibility>
1.0

>  <Outcome>
1

>  <StandardizerResult>
Remove Explicit Hydrogens (ID: RemoveExplicitH)
Clear Stereo (ID: ClearStereo)
Wedge Clean (ID: WedgeClean)
Mesomerize (ID: Mesomerize)
Tautomerize (ID: Tautomerize)
Add Explicit Hydrogens (ID: AddExplicitH)
Neutralize (ID: Neutralize)
Clean 2D (ID: Clean2D)


$$$$

  Mrv1812 02121911042D          

 22 22  0  0  0  0            999 V2000
    2.5251   -2.4371    0.0000 C   0  0  0  0  0  0  0  0  0  0  0  0
    2.5251   -1.6121    0.0000 C   0  0  0  0  0  0  0  0  0  0  0  0
    1.8106   -1.1996    0.0000 C   0  0  0  0  0  0  0  0  0  0  0  0
    1.8106   -0.3746    0.0000 S   0  0  0  0  0  0  0  0  0  0  0  0
    1.0962    0.0379    0.0000 C   0  0  0  0  0  0  0  0  0  0  0  0
    1.0962    0.8629    0.0000 N   0  0  0  0  0  0  0  0  0  0  0  0
    0.3817    1.2754    0.0000 C   0  0  0  0  0  0  0  0  0  0  0  0
   -0.3328    0.8629    0.0000 C   0  0  0  0  0  0  0  0  0  0  0  0
   -0.3328    0.0379    0.0000 C   0  0  0  0  0  0  0  0  0  0  0  0
    0.3817   -0.3746    0.0000 N   0  0  0  0  0  0  0  0  0  0  0  0
   -1.0472   -0.3746    0.0000 Cl  0  0  0  0  0  0  0  0  0  0  0  0
   -1.0472    1.2754    0.0000 N   0  0  0  0  0  0  0  0  0  0  0  0
   -1.7617    0.8629    0.0000 O   0  0  0  0  0  0  0  0  0  0  0  0
   -1.0472    2.1004    0.0000 O   0  0  0  0  0  0  0  0  0  0  0  0
    0.3817    2.1004    0.0000 Cl  0  0  0  0  0  0  0  0  0  0  0  0
    1.7001   -2.4371    0.0000 H   0  0  0  0  0  0  0  0  0  0  0  0
    2.5251   -3.2621    0.0000 H   0  0  0  0  0  0  0  0  0  0  0  0
    3.3501   -2.4371    0.0000 H   0  0  0  0  0  0  0  0  0  0  0  0
    3.3487   -1.5641    0.0000 H   0  0  0  0  0  0  0  0  0  0  0  0
    2.9785   -0.9228    0.0000 H   0  0  0  0  0  0  0  0  0  0  0  0
    0.9870   -1.2476    0.0000 H   0  0  0  0  0  0  0  0  0  0  0  0
    1.3573   -1.8889    0.0000 H   0  0  0  0  0  0  0  0  0  0  0  0
  1  2  1  0  0  0  0
  2  3  1  0  0  0  0
  3  4  1  0  0  0  0
  4  5  1  0  0  0  0
  6  5  4  0  0  0  0
  7  6  4  0  0  0  0
  8  7  4  0  0  0  0
  9  8  4  0  0  0  0
 10  9  4  0  0  0  0
  9 11  1  0  0  0  0
  8 12  1  0  0  0  0
 12 13  2  0  0  0  0
 12 14  2  0  0  0  0
  7 15  1  0  0  0  0
  5 10  4  0  0  0  0
  1 16  1  0  0  0  0
  1 17  1  0  0  0  0
  1 18  1  0  0  0  0
  2 19  1  0  0  0  0
  2 20  1  0  0  0  0
  3 21  1  0  0  0  0
  3 22  1  0  0  0  0
M  END
>  <id_input>
2815

>  <InChIKey>
DDEDQHVHVPJFAC-UHFFFAOYSA-N

>  <substance_name>
4,6-dichloro-5-nitro-2-(propylsulfanyl)pyrimidine

>  <casrn>
145783-14-8

>  <Molecular weight>
268.1203918457031

>  <guideline>
OECD Guideline 404 (Acute Dermal Irritation / Corrosion)

>  <species>
rabbit

>  <type_of_coverage>
semiocclusive

>  <max_duration(hrs)>
4.0

>  <vehicle>
unchanged (no vehicle)

>  <edema/ erythema score>
2.375

>  <max_score>
4.0

>  <reversibility>
0.0

>  <Outcome>
1

>  <StandardizerResult>
Remove Explicit Hydrogens (ID: RemoveExplicitH)
Dearomatize (ID: Dearomatize)
Clear Stereo (ID: ClearStereo)
Wedge Clean (ID: WedgeClean)
Mesomerize (ID: Mesomerize)
Tautomerize (ID: Tautomerize)
Aromatize (ID: Aromatize)
Add Explicit Hydrogens (ID: AddExplicitH)
Neutralize (ID: Neutralize)
Clean 2D (ID: Clean2D)


$$$$

  Mrv1812 02121911042D          

 36 36  0  0  0  0            999 V2000
    0.5248    1.2609    0.0000 C   0  0  0  0  0  0  0  0  0  0  0  0
   -0.1897    0.8484    0.0000 C   0  0  0  0  0  0  0  0  0  0  0  0
   -0.9042    1.2609    0.0000 C   0  0  0  0  0  0  0  0  0  0  0  0
   -1.6186    0.8484    0.0000 C   0  0  0  0  0  0  0  0  0  0  0  0
   -1.6186    0.0234    0.0000 C   0  0  0  0  0  0  0  0  0  0  0  0
   -0.9042   -0.3891    0.0000 C   0  0  0  0  0  0  0  0  0  0  0  0
   -0.9042   -1.2141    0.0000 C   0  0  0  0  0  0  0  0  0  0  0  0
   -0.1897   -1.6266    0.0000 C   0  0  0  0  0  0  0  0  0  0  0  0
    0.5248   -1.2141    0.0000 C   0  0  0  0  0  0  0  0  0  0  0  0
    0.5248   -0.3891    0.0000 C   0  0  0  0  0  0  0  0  0  0  0  0
    1.2393    0.0234    0.0000 C   0  0  0  0  0  0  0  0  0  0  0  0
    1.2393    0.8484    0.0000 C   0  0  0  0  0  0  0  0  0  0  0  0
    0.8950    1.9982    0.0000 H   0  0  0  0  0  0  0  0  0  0  0  0
    0.1545    1.9982    0.0000 H   0  0  0  0  0  0  0  0  0  0  0  0
   -0.5599    0.1112    0.0000 H   0  0  0  0  0  0  0  0  0  0  0  0
    0.1806    0.1112    0.0000 H   0  0  0  0  0  0  0  0  0  0  0  0
   -0.5339    1.9982    0.0000 H   0  0  0  0  0  0  0  0  0  0  0  0
   -1.2744    1.9982    0.0000 H   0  0  0  0  0  0  0  0  0  0  0  0
   -2.0720    1.5377    0.0000 H   0  0  0  0  0  0  0  0  0  0  0  0
   -2.4422    0.8964    0.0000 H   0  0  0  0  0  0  0  0  0  0  0  0
   -2.4422   -0.0246    0.0000 H   0  0  0  0  0  0  0  0  0  0  0  0
   -2.0720   -0.6659    0.0000 H   0  0  0  0  0  0  0  0  0  0  0  0
   -0.1163   -0.6339    0.0000 H   0  0  0  0  0  0  0  0  0  0  0  0
   -1.6186   -0.8016    0.0000 H   0  0  0  0  0  0  0  0  0  0  0  0
   -1.5361   -1.7444    0.0000 H   0  0  0  0  0  0  0  0  0  0  0  0
   -1.0474   -2.0266    0.0000 H   0  0  0  0  0  0  0  0  0  0  0  0
   -0.0899   -2.4455    0.0000 H   0  0  0  0  0  0  0  0  0  0  0  0
    0.4239   -2.1780    0.0000 H   0  0  0  0  0  0  0  0  0  0  0  0
    1.2805   -1.5450    0.0000 H   0  0  0  0  0  0  0  0  0  0  0  0
    1.3108   -0.9636    0.0000 H   0  0  0  0  0  0  0  0  0  0  0  0
    1.2393   -0.8016    0.0000 H   0  0  0  0  0  0  0  0  0  0  0  0
    0.7066    0.4156    0.0000 H   0  0  0  0  0  0  0  0  0  0  0  0
    2.0145   -0.2588    0.0000 H   0  0  0  0  0  0  0  0  0  0  0  0
    2.0145    0.3056    0.0000 H   0  0  0  0  0  0  0  0  0  0  0  0
    1.8986    1.3443    0.0000 H   0  0  0  0  0  0  0  0  0  0  0  0
    1.4100    1.6555    0.0000 H   0  0  0  0  0  0  0  0  0  0  0  0
  2  1  1  0  0  0  0
  3  2  1  0  0  0  0
  4  3  1  0  0  0  0
  5  4  1  0  0  0  0
  6  5  1  0  0  0  0
  7  6  1  0  0  0  0
  8  7  1  0  0  0  0
  9  8  1  0  0  0  0
 10  9  1  0  0  0  0
 11 10  1  0  0  0  0
 12 11  1  0  0  0  0
  1 12  1  0  0  0  0
  1 13  1  0  0  0  0
  1 14  1  0  0  0  0
  2 15  1  0  0  0  0
  2 16  1  0  0  0  0
  3 17  1  0  0  0  0
  3 18  1  0  0  0  0
  4 19  1  0  0  0  0
  4 20  1  0  0  0  0
  5 21  1  0  0  0  0
  5 22  1  0  0  0  0
  6 23  1  0  0  0  0
  6 24  1  0  0  0  0
  7 25  1  0  0  0  0
  7 26  1  0  0  0  0
  8 27  1  0  0  0  0
  8 28  1  0  0  0  0
  9 29  1  0  0  0  0
  9 30  1  0  0  0  0
 10 31  1  0  0  0  0
 10 32  1  0  0  0  0
 11 33  1  0  0  0  0
 11 34  1  0  0  0  0
 12 35  1  0  0  0  0
 12 36  1  0  0  0  0
M  END
>  <id_input>
4025

>  <InChIKey>
DDTBPAQBQHZRDW-UHFFFAOYSA-N

>  <substance_name>
cyclododecane

>  <casrn>
294-62-2

>  <Molecular weight>
168.3189697265625

>  <guideline>
OECD Guideline 404 (Acute Dermal Irritation / Corrosion)

>  <species>
rabbit

>  <type_of_coverage>
occlusive

>  <max_duration(hrs)>
4.0

>  <vehicle>
other: paraffin oil

>  <edema/ erythema score>
1.56

>  <max_score>
4.0

>  <reversibility>
0.0

>  <Outcome>
1

>  <StandardizerResult>
Remove Explicit Hydrogens (ID: RemoveExplicitH)
Clear Stereo (ID: ClearStereo)
Wedge Clean (ID: WedgeClean)
Mesomerize (ID: Mesomerize)
Tautomerize (ID: Tautomerize)
Add Explicit Hydrogens (ID: AddExplicitH)
Neutralize (ID: Neutralize)
Clean 2D (ID: Clean2D)


$$$$

  Mrv1812 02121911042D          

 11 10  0  0  0  0            999 V2000
    2.3152   -1.0053    0.0000 Cl  0  0  0  0  0  0  0  0  0  0  0  0
    1.9027   -0.2908    0.0000 C   0  0  0  0  0  0  0  0  0  0  0  0
    2.3152    0.4237    0.0000 C   0  0  0  0  0  0  0  0  0  0  0  0
    1.0777   -0.2908    0.0000 C   0  0  0  0  0  0  0  0  0  0  0  0
    0.6652    0.4237    0.0000 N   0  0  0  0  0  0  0  0  0  0  0  0
   -0.1598    0.4237    0.0000 C   0  0  0  0  0  0  0  0  0  0  0  0
   -0.9848    0.4237    0.0000 S   0  0  0  0  0  0  0  0  0  0  0  0
    3.1402    0.4237    0.0000 H   0  0  0  0  0  0  0  0  0  0  0  0
    1.9027    1.1381    0.0000 H   0  0  0  0  0  0  0  0  0  0  0  0
    0.3884   -0.7441    0.0000 H   0  0  0  0  0  0  0  0  0  0  0  0
    1.0297   -1.1144    0.0000 H   0  0  0  0  0  0  0  0  0  0  0  0
  1  2  1  0  0  0  0
  2  3  2  0  0  0  0
  2  4  1  0  0  0  0
  5  4  1  4  0  0  0
  5  6  2  0  0  0  0
  6  7  2  0  0  0  0
  3  8  1  0  0  0  0
  3  9  1  0  0  0  0
  4 10  1  0  0  0  0
  4 11  1  0  0  0  0
M  END
>  <id_input>
566

>  <InChIKey>
DGBFPSVUFUDQNA-UHFFFAOYSA-N

>  <substance_name>
-

>  <casrn>
14214-31-4

>  <Molecular weight>
133.59925842285156

>  <guideline>
OECD Guideline 404 (Acute Dermal Irritation / Corrosion)

>  <species>
rabbit

>  <type_of_coverage>
semiocclusive

>  <vehicle>
unchanged (no vehicle)

>  <edema/ erythema score>
2.56

>  <max_score>
3.0

>  <reversibility>
1.0

>  <Outcome>
1

>  <StandardizerResult>
Remove Explicit Hydrogens (ID: RemoveExplicitH)
Clear Stereo (ID: ClearStereo)
Wedge Clean (ID: WedgeClean)
Mesomerize (ID: Mesomerize)
Tautomerize (ID: Tautomerize)
Add Explicit Hydrogens (ID: AddExplicitH)
Neutralize (ID: Neutralize)
Clean 2D (ID: Clean2D)


$$$$

  Mrv1812 02121911042D          

 29 29  0  0  0  0            999 V2000
    4.0137    0.6597    0.0000 C   0  0  0  0  0  0  0  0  0  0  0  0
    3.2992    0.2472    0.0000 C   0  0  0  0  0  0  0  0  0  0  0  0
    2.8867    0.9617    0.0000 C   0  0  0  0  0  0  0  0  0  0  0  0
    3.7117   -0.4672    0.0000 C   0  0  0  0  0  0  0  0  0  0  0  0
    2.5847   -0.1653    0.0000 N   0  0  0  0  0  0  0  0  0  0  0  0
    1.8703    0.2472    0.0000 C   0  0  0  0  0  0  0  0  0  0  0  0
    1.1558   -0.1653    0.0000 C   0  0  0  0  0  0  0  0  0  0  0  0
    0.4413    0.2472    0.0000 C   0  0  0  0  0  0  0  0  0  0  0  0
   -0.2731   -0.1653    0.0000 C   0  0  0  0  0  0  0  0  0  0  0  0
   -0.2731   -0.9903    0.0000 C   0  0  0  0  0  0  0  0  0  0  0  0
    0.4413   -1.4028    0.0000 C   0  0  0  0  0  0  0  0  0  0  0  0
    1.1558   -0.9903    0.0000 C   0  0  0  0  0  0  0  0  0  0  0  0
    4.4262   -0.0547    0.0000 H   0  0  0  0  0  0  0  0  0  0  0  0
    4.7281    1.0722    0.0000 H   0  0  0  0  0  0  0  0  0  0  0  0
    3.6012    1.3742    0.0000 H   0  0  0  0  0  0  0  0  0  0  0  0
    2.7790    1.7796    0.0000 H   0  0  0  0  0  0  0  0  0  0  0  0
    2.0898    1.1752    0.0000 H   0  0  0  0  0  0  0  0  0  0  0  0
    2.3845    0.3072    0.0000 H   0  0  0  0  0  0  0  0  0  0  0  0
    2.8938   -0.5749    0.0000 H   0  0  0  0  0  0  0  0  0  0  0  0
    3.4982   -1.2641    0.0000 H   0  0  0  0  0  0  0  0  0  0  0  0
    4.3662   -0.9695    0.0000 H   0  0  0  0  0  0  0  0  0  0  0  0
    2.0382   -0.7833    0.0000 H   0  0  0  0  0  0  0  0  0  0  0  0
    1.2084    0.7398    0.0000 H   0  0  0  0  0  0  0  0  0  0  0  0
    1.8703   -0.5778    0.0000 H   0  0  0  0  0  0  0  0  0  0  0  0
    0.0121    0.9518    0.0000 H   0  0  0  0  0  0  0  0  0  0  0  0
   -0.9876    0.2472    0.0000 H   0  0  0  0  0  0  0  0  0  0  0  0
   -0.9876   -1.4028    0.0000 H   0  0  0  0  0  0  0  0  0  0  0  0
    0.4413   -2.2278    0.0000 H   0  0  0  0  0  0  0  0  0  0  0  0
    1.4595   -1.7573    0.0000 H   0  0  0  0  0  0  0  0  0  0  0  0
  1  2  1  0  0  0  0
  2  3  1  0  0  0  0
  2  4  1  0  0  0  0
  2  5  1  0  0  0  0
  5  6  1  0  0  0  0
  6  7  1  0  0  0  0
  8  7  4  0  0  0  0
  9  8  4  0  0  0  0
 10  9  4  0  0  0  0
 11 10  4  0  0  0  0
 12 11  4  0  0  0  0
  7 12  4  0  0  0  0
  1 13  1  0  0  0  0
  1 14  1  0  0  0  0
  1 15  1  0  0  0  0
  3 16  1  0  0  0  0
  3 17  1  0  0  0  0
  3 18  1  0  0  0  0
  4 19  1  0  0  0  0
  4 20  1  0  0  0  0
  4 21  1  0  0  0  0
  5 22  1  0  0  0  0
  6 23  1  0  0  0  0
  6 24  1  0  0  0  0
  8 25  1  0  0  0  0
  9 26  1  0  0  0  0
 10 27  1  0  0  0  0
 11 28  1  0  0  0  0
 12 29  1  0  0  0  0
M  END
>  <id_input>
3903

>  <InChIKey>
DLSOILHAKCBARI-UHFFFAOYSA-N

>  <substance_name>
benzyl(tert-butyl)amine

>  <casrn>
3378-72-1

>  <Molecular weight>
164.26731872558594

>  <guideline>
OECD Guideline 404 (Acute Dermal Irritation / Corrosion)

>  <species>
rabbit

>  <type_of_coverage>
semiocclusive

>  <max_duration(hrs)>
4.0

>  <vehicle>
unchanged (no vehicle)

>  <edema/ erythema score>
4.0

>  <max_score>
4.0

>  <reversibility>
1.0

>  <Outcome>
1

>  <StandardizerResult>
Remove Explicit Hydrogens (ID: RemoveExplicitH)
Dearomatize (ID: Dearomatize)
Clear Stereo (ID: ClearStereo)
Wedge Clean (ID: WedgeClean)
Mesomerize (ID: Mesomerize)
Tautomerize (ID: Tautomerize)
Aromatize (ID: Aromatize)
Add Explicit Hydrogens (ID: AddExplicitH)
Neutralize (ID: Neutralize)
Clean 2D (ID: Clean2D)


$$$$

  Mrv1812 02121911042D          

 79 78  0  0  0  0            999 V2000
    1.6982   -5.8517    0.0000 C   0  0  0  0  0  0  0  0  0  0  0  0
    1.6982   -5.0267    0.0000 C   0  0  0  0  0  0  0  0  0  0  0  0
    0.9838   -4.6142    0.0000 C   0  0  0  0  0  0  0  0  0  0  0  0
    0.9838   -3.7892    0.0000 C   0  0  0  0  0  0  0  0  0  0  0  0
    0.2693   -3.3767    0.0000 C   0  0  0  0  0  0  0  0  0  0  0  0
   -0.4452   -3.7892    0.0000 C   0  0  0  0  0  0  0  0  0  0  0  0
   -1.1596   -3.3767    0.0000 C   0  0  0  0  0  0  0  0  0  0  0  0
    0.2693   -2.5517    0.0000 C   0  0  0  0  0  0  0  0  0  0  0  0
   -0.4452   -2.1392    0.0000 O   0  0  0  0  0  0  0  0  0  0  0  0
   -0.4452   -1.3142    0.0000 B   0  0  0  0  0  0  0  0  0  0  0  0
   -1.1596   -0.9017    0.0000 O   0  0  0  0  0  0  0  0  0  0  0  0
   -1.1596   -0.0767    0.0000 C   0  0  0  0  0  0  0  0  0  0  0  0
   -1.8741    0.3358    0.0000 C   0  0  0  0  0  0  0  0  0  0  0  0
   -2.5886   -0.0767    0.0000 C   0  0  0  0  0  0  0  0  0  0  0  0
   -3.3031    0.3358    0.0000 C   0  0  0  0  0  0  0  0  0  0  0  0
   -1.8741    1.1608    0.0000 C   0  0  0  0  0  0  0  0  0  0  0  0
   -2.5886    1.5733    0.0000 C   0  0  0  0  0  0  0  0  0  0  0  0
   -2.5886    2.3983    0.0000 C   0  0  0  0  0  0  0  0  0  0  0  0
   -3.3031    2.8108    0.0000 C   0  0  0  0  0  0  0  0  0  0  0  0
    0.2693   -0.9017    0.0000 O   0  0  0  0  0  0  0  0  0  0  0  0
    0.2693   -0.0767    0.0000 C   0  0  0  0  0  0  0  0  0  0  0  0
    0.9838    0.3358    0.0000 C   0  0  0  0  0  0  0  0  0  0  0  0
    1.6982   -0.0767    0.0000 C   0  0  0  0  0  0  0  0  0  0  0  0
    2.4127    0.3358    0.0000 C   0  0  0  0  0  0  0  0  0  0  0  0
    0.9838    1.1608    0.0000 C   0  0  0  0  0  0  0  0  0  0  0  0
    1.6982    1.5733    0.0000 C   0  0  0  0  0  0  0  0  0  0  0  0
    1.6982    2.3983    0.0000 C   0  0  0  0  0  0  0  0  0  0  0  0
    2.4127    2.8108    0.0000 C   0  0  0  0  0  0  0  0  0  0  0  0
    0.8732   -5.8517    0.0000 H   0  0  0  0  0  0  0  0  0  0  0  0
    1.6982   -6.6767    0.0000 H   0  0  0  0  0  0  0  0  0  0  0  0
    2.5232   -5.8517    0.0000 H   0  0  0  0  0  0  0  0  0  0  0  0
    2.5218   -4.9787    0.0000 H   0  0  0  0  0  0  0  0  0  0  0  0
    2.1516   -4.3374    0.0000 H   0  0  0  0  0  0  0  0  0  0  0  0
    0.1602   -4.6622    0.0000 H   0  0  0  0  0  0  0  0  0  0  0  0
    0.5304   -5.3035    0.0000 H   0  0  0  0  0  0  0  0  0  0  0  0
    1.8074   -3.7412    0.0000 H   0  0  0  0  0  0  0  0  0  0  0  0
    1.4371   -3.0999    0.0000 H   0  0  0  0  0  0  0  0  0  0  0  0
    0.2693   -4.2017    0.0000 H   0  0  0  0  0  0  0  0  0  0  0  0
   -1.0772   -4.3195    0.0000 H   0  0  0  0  0  0  0  0  0  0  0  0
   -0.5884   -4.6017    0.0000 H   0  0  0  0  0  0  0  0  0  0  0  0
   -0.5891   -2.7808    0.0000 H   0  0  0  0  0  0  0  0  0  0  0  0
   -1.6029   -2.6809    0.0000 H   0  0  0  0  0  0  0  0  0  0  0  0
   -1.9409   -3.6419    0.0000 H   0  0  0  0  0  0  0  0  0  0  0  0
    1.0929   -2.5037    0.0000 H   0  0  0  0  0  0  0  0  0  0  0  0
    0.7226   -1.8624    0.0000 H   0  0  0  0  0  0  0  0  0  0  0  0
   -0.3360   -0.0287    0.0000 H   0  0  0  0  0  0  0  0  0  0  0  0
   -0.7063    0.6126    0.0000 H   0  0  0  0  0  0  0  0  0  0  0  0
   -1.8741   -0.4892    0.0000 H   0  0  0  0  0  0  0  0  0  0  0  0
   -3.2206   -0.6070    0.0000 H   0  0  0  0  0  0  0  0  0  0  0  0
   -2.7318   -0.8892    0.0000 H   0  0  0  0  0  0  0  0  0  0  0  0
   -2.7326    0.9317    0.0000 H   0  0  0  0  0  0  0  0  0  0  0  0
   -3.7463    1.0316    0.0000 H   0  0  0  0  0  0  0  0  0  0  0  0
   -4.0843    0.0706    0.0000 H   0  0  0  0  0  0  0  0  0  0  0  0
   -1.0505    1.2088    0.0000 H   0  0  0  0  0  0  0  0  0  0  0  0
   -1.4208    1.8501    0.0000 H   0  0  0  0  0  0  0  0  0  0  0  0
   -3.4086    1.6642    0.0000 H   0  0  0  0  0  0  0  0  0  0  0  0
   -1.8741    1.9858    0.0000 H   0  0  0  0  0  0  0  0  0  0  0  0
   -1.9566    2.9286    0.0000 H   0  0  0  0  0  0  0  0  0  0  0  0
   -2.4453    3.2107    0.0000 H   0  0  0  0  0  0  0  0  0  0  0  0
   -3.4640    3.6199    0.0000 H   0  0  0  0  0  0  0  0  0  0  0  0
   -4.1273    2.8468    0.0000 H   0  0  0  0  0  0  0  0  0  0  0  0
   -3.5339    2.0187    0.0000 H   0  0  0  0  0  0  0  0  0  0  0  0
    0.0874    0.7280    0.0000 H   0  0  0  0  0  0  0  0  0  0  0  0
    0.9838   -0.4892    0.0000 H   0  0  0  0  0  0  0  0  0  0  0  0
    1.6982    0.7483    0.0000 H   0  0  0  0  0  0  0  0  0  0  0  0
    1.8415   -0.8892    0.0000 H   0  0  0  0  0  0  0  0  0  0  0  0
    2.3302   -0.6070    0.0000 H   0  0  0  0  0  0  0  0  0  0  0  0
    3.0987   -0.1226    0.0000 H   0  0  0  0  0  0  0  0  0  0  0  0
    3.1445    0.7167    0.0000 H   0  0  0  0  0  0  0  0  0  0  0  0
    2.4307    1.1606    0.0000 H   0  0  0  0  0  0  0  0  0  0  0  0
    0.5304    1.8501    0.0000 H   0  0  0  0  0  0  0  0  0  0  0  0
    0.1602    1.2088    0.0000 H   0  0  0  0  0  0  0  0  0  0  0  0
    0.9838    1.9858    0.0000 H   0  0  0  0  0  0  0  0  0  0  0  0
    2.4105    1.9895    0.0000 H   0  0  0  0  0  0  0  0  0  0  0  0
    1.5550    3.2107    0.0000 H   0  0  0  0  0  0  0  0  0  0  0  0
    1.0663    2.9286    0.0000 H   0  0  0  0  0  0  0  0  0  0  0  0
    3.1352    2.4125    0.0000 H   0  0  0  0  0  0  0  0  0  0  0  0
    3.1091    3.2531    0.0000 H   0  0  0  0  0  0  0  0  0  0  0  0
    2.3593    3.6341    0.0000 H   0  0  0  0  0  0  0  0  0  0  0  0
  1  2  1  0  0  0  0
  2  3  1  0  0  0  0
  3  4  1  0  0  0  0
  4  5  1  0  0  0  0
  5  6  1  0  0  0  0
  6  7  1  0  0  0  0
  5  8  1  0  0  0  0
  8  9  1  0  0  0  0
  9 10  1  0  0  0  0
 10 11  1  0  0  0  0
 11 12  1  0  0  0  0
 12 13  1  0  0  0  0
 13 14  1  0  0  0  0
 14 15  1  0  0  0  0
 13 16  1  0  0  0  0
 16 17  1  0  0  0  0
 17 18  1  0  0  0  0
 18 19  1  0  0  0  0
 10 20  1  0  0  0  0
 20 21  1  0  0  0  0
 21 22  1  0  0  0  0
 22 23  1  0  0  0  0
 23 24  1  0  0  0  0
 22 25  1  0  0  0  0
 25 26  1  0  0  0  0
 26 27  1  0  0  0  0
 27 28  1  0  0  0  0
  1 29  1  0  0  0  0
  1 30  1  0  0  0  0
  1 31  1  0  0  0  0
  2 32  1  0  0  0  0
  2 33  1  0  0  0  0
  3 34  1  0  0  0  0
  3 35  1  0  0  0  0
  4 36  1  0  0  0  0
  4 37  1  0  0  0  0
  5 38  1  0  0  0  0
  6 39  1  0  0  0  0
  6 40  1  0  0  0  0
  7 41  1  0  0  0  0
  7 42  1  0  0  0  0
  7 43  1  0  0  0  0
  8 44  1  0  0  0  0
  8 45  1  0  0  0  0
 12 46  1  0  0  0  0
 12 47  1  0  0  0  0
 13 48  1  0  0  0  0
 14 49  1  0  0  0  0
 14 50  1  0  0  0  0
 15 51  1  0  0  0  0
 15 52  1  0  0  0  0
 15 53  1  0  0  0  0
 16 54  1  0  0  0  0
 16 55  1  0  0  0  0
 17 56  1  0  0  0  0
 17 57  1  0  0  0  0
 18 58  1  0  0  0  0
 18 59  1  0  0  0  0
 19 60  1  0  0  0  0
 19 61  1  0  0  0  0
 19 62  1  0  0  0  0
 21 63  1  0  0  0  0
 21 64  1  0  0  0  0
 22 65  1  0  0  0  0
 23 66  1  0  0  0  0
 23 67  1  0  0  0  0
 24 68  1  0  0  0  0
 24 69  1  0  0  0  0
 24 70  1  0  0  0  0
 25 71  1  0  0  0  0
 25 72  1  0  0  0  0
 26 73  1  0  0  0  0
 26 74  1  0  0  0  0
 27 75  1  0  0  0  0
 27 76  1  0  0  0  0
 28 77  1  0  0  0  0
 28 78  1  0  0  0  0
 28 79  1  0  0  0  0
M  END
>  <id_input>
5173

>  <InChIKey>
DLVYHYUFIXLWKV-UHFFFAOYSA-N

>  <substance_name>
tris(2-ethylhexyl) borate

>  <casrn>
2467-13-2

>  <Molecular weight>
398.470947265625

>  <guideline>
OECD Guideline 404 (Acute Dermal Irritation / Corrosion)

>  <species>
rabbit

>  <type_of_coverage>
semiocclusive

>  <max_duration(hrs)>
4.0

>  <vehicle>
unchanged (no vehicle)

>  <edema/ erythema score>
2.0

>  <max_score>
4.0

>  <reversibility>
0.0

>  <Outcome>
1

>  <StandardizerResult>
Remove Explicit Hydrogens (ID: RemoveExplicitH)
Clear Stereo (ID: ClearStereo)
Wedge Clean (ID: WedgeClean)
Mesomerize (ID: Mesomerize)
Tautomerize (ID: Tautomerize)
Add Explicit Hydrogens (ID: AddExplicitH)
Neutralize (ID: Neutralize)
Clean 2D (ID: Clean2D)


$$$$

  Mrv1812 02121911042D          

 21 21  0  0  0  0            999 V2000
    2.3920    0.4759    0.0000 C   0  0  0  0  0  0  0  0  0  0  0  0
    1.6775    0.0634    0.0000 O   0  0  0  0  0  0  0  0  0  0  0  0
    0.9631    0.4759    0.0000 C   0  0  0  0  0  0  0  0  0  0  0  0
    0.9631    1.3009    0.0000 N   0  0  0  0  0  0  0  0  0  0  0  0
    0.2486    1.7134    0.0000 C   0  0  0  0  0  0  0  0  0  0  0  0
   -0.4659    1.3009    0.0000 C   0  0  0  0  0  0  0  0  0  0  0  0
   -0.4659    0.4759    0.0000 C   0  0  0  0  0  0  0  0  0  0  0  0
    0.2486    0.0634    0.0000 C   0  0  0  0  0  0  0  0  0  0  0  0
    0.2486   -0.7616    0.0000 S   0  0  0  0  0  0  0  0  0  0  0  0
    0.2486   -1.5866    0.0000 Cl  0  0  0  0  0  0  0  0  0  0  0  0
    1.0736   -0.7616    0.0000 O   0  0  0  0  0  0  0  0  0  0  0  0
   -0.5764   -0.7616    0.0000 O   0  0  0  0  0  0  0  0  0  0  0  0
   -1.1803    0.0634    0.0000 C   0  0  0  0  0  0  0  0  0  0  0  0
   -1.8948   -0.3491    0.0000 F   0  0  0  0  0  0  0  0  0  0  0  0
   -1.5928    0.7779    0.0000 F   0  0  0  0  0  0  0  0  0  0  0  0
   -1.0088   -0.7436    0.0000 F   0  0  0  0  0  0  0  0  0  0  0  0
    2.8045   -0.2386    0.0000 H   0  0  0  0  0  0  0  0  0  0  0  0
    3.1065    0.8884    0.0000 H   0  0  0  0  0  0  0  0  0  0  0  0
    1.9795    1.1904    0.0000 H   0  0  0  0  0  0  0  0  0  0  0  0
    0.2486    2.5384    0.0000 H   0  0  0  0  0  0  0  0  0  0  0  0
   -1.1803    1.7134    0.0000 H   0  0  0  0  0  0  0  0  0  0  0  0
  1  2  1  0  0  0  0
  2  3  1  0  0  0  0
  4  3  4  0  0  0  0
  5  4  4  0  0  0  0
  6  5  4  0  0  0  0
  7  6  4  0  0  0  0
  8  7  4  0  0  0  0
  8  9  1  0  0  0  0
  9 10  1  0  0  0  0
  9 11  2  0  0  0  0
  9 12  2  0  0  0  0
  7 13  1  0  0  0  0
 13 14  1  0  0  0  0
 13 15  1  0  0  0  0
 13 16  1  0  0  0  0
  3  8  4  0  0  0  0
  1 17  1  0  0  0  0
  1 18  1  0  0  0  0
  1 19  1  0  0  0  0
  5 20  1  0  0  0  0
  6 21  1  0  0  0  0
M  END
>  <id_input>
554

>  <InChIKey>
DMKFWTCEKLNOKK-UHFFFAOYSA-N

>  <substance_name>
-

>  <casrn>
219715-41-0

>  <Molecular weight>
275.6327209472656

>  <guideline>
EPA OPPTS 870.2500 (Acute Dermal Irritation)

>  <species>
rabbit

>  <type_of_coverage>
semiocclusive

>  <max_duration(hrs)>
4.0

>  <vehicle>
water

>  <edema/ erythema score>
2.44666666666666

>  <max_score>
4.0

>  <reversibility>
0.0

>  <Outcome>
1

>  <StandardizerResult>
Remove Explicit Hydrogens (ID: RemoveExplicitH)
Dearomatize (ID: Dearomatize)
Clear Stereo (ID: ClearStereo)
Wedge Clean (ID: WedgeClean)
Mesomerize (ID: Mesomerize)
Tautomerize (ID: Tautomerize)
Aromatize (ID: Aromatize)
Add Explicit Hydrogens (ID: AddExplicitH)
Neutralize (ID: Neutralize)
Clean 2D (ID: Clean2D)


$$$$

  Mrv1812 02121911042D          

 17 16  0  0  0  0            999 V2000
   -0.7565   -1.3103    0.0000 C   0  0  0  0  0  0  0  0  0  0  0  0
   -0.0420   -0.8978    0.0000 C   0  0  0  0  0  0  0  0  0  0  0  0
    0.6725   -1.3103    0.0000 C   0  0  0  0  0  0  0  0  0  0  0  0
    0.6725   -2.1353    0.0000 O   0  0  0  0  0  0  0  0  0  0  0  0
    1.3869   -0.8978    0.0000 O   0  0  0  0  0  0  0  0  0  0  0  0
    2.1014   -1.3103    0.0000 C   0  0  0  0  0  0  0  0  0  0  0  0
    2.8159   -0.8978    0.0000 C   0  0  0  0  0  0  0  0  0  0  0  0
    3.5303   -1.3103    0.0000 N   0  0  0  0  0  0  0  0  0  0  0  0
    4.2448   -0.8978    0.0000 C   0  0  0  0  0  0  0  0  0  0  0  0
    4.9593   -0.4853    0.0000 O   0  0  0  0  0  0  0  0  0  0  0  0
   -1.4709   -0.8978    0.0000 H   0  0  0  0  0  0  0  0  0  0  0  0
   -0.7565   -2.1353    0.0000 H   0  0  0  0  0  0  0  0  0  0  0  0
   -0.0420   -0.0728    0.0000 H   0  0  0  0  0  0  0  0  0  0  0  0
    1.7311   -2.0475    0.0000 H   0  0  0  0  0  0  0  0  0  0  0  0
    2.4717   -2.0475    0.0000 H   0  0  0  0  0  0  0  0  0  0  0  0
    3.1861   -0.1606    0.0000 H   0  0  0  0  0  0  0  0  0  0  0  0
    2.4456   -0.1606    0.0000 H   0  0  0  0  0  0  0  0  0  0  0  0
  1  2  2  0  0  0  0
  2  3  1  0  0  0  0
  3  4  2  0  0  0  0
  3  5  1  0  0  0  0
  5  6  1  0  0  0  0
  6  7  1  0  0  0  0
  8  7  1  4  0  0  0
  8  9  2  0  0  0  0
  9 10  2  0  0  0  0
  1 11  1  0  0  0  0
  1 12  1  0  0  0  0
  2 13  1  0  0  0  0
  6 14  1  0  0  0  0
  6 15  1  0  0  0  0
  7 16  1  0  0  0  0
  7 17  1  0  0  0  0
M  END
>  <id_input>
1440

>  <InChIKey>
DPNXHTDWGGVXID-UHFFFAOYSA-N

>  <substance_name>
-

>  <casrn>
13641-96-8

>  <Molecular weight>
141.1246795654297

>  <guideline>
OECD Guideline 404 (Acute Dermal Irritation / Corrosion)

>  <species>
rabbit

>  <type_of_coverage>
semiocclusive

>  <max_duration(hrs)>
4.0

>  <vehicle>
unchanged (no vehicle)

>  <edema/ erythema score>
2.38285714285714

>  <max_score>
4.0

>  <reversibility>
0.0

>  <Outcome>
1

>  <StandardizerResult>
Remove Explicit Hydrogens (ID: RemoveExplicitH)
Clear Stereo (ID: ClearStereo)
Wedge Clean (ID: WedgeClean)
Mesomerize (ID: Mesomerize)
Tautomerize (ID: Tautomerize)
Add Explicit Hydrogens (ID: AddExplicitH)
Neutralize (ID: Neutralize)
Clean 2D (ID: Clean2D)


$$$$

  Mrv1812 02121911042D          

 34 34  0  0  0  0            999 V2000
   -0.9481    1.0272    0.0000 C   0  0  0  0  0  0  0  0  0  0  0  0
   -0.2336    0.6147    0.0000 C   0  0  0  0  0  0  0  0  0  0  0  0
    0.4808    1.0272    0.0000 C   0  0  0  0  0  0  0  0  0  0  0  0
    1.1953    0.6147    0.0000 C   0  0  0  0  0  0  0  0  0  0  0  0
    1.9098    1.0272    0.0000 C   0  0  0  0  0  0  0  0  0  0  0  0
    2.6242    0.6147    0.0000 C   0  0  0  0  0  0  0  0  0  0  0  0
    3.3387    1.0272    0.0000 O   0  0  0  0  0  0  0  0  0  0  0  0
    4.0532    0.6147    0.0000 C   0  0  0  0  0  0  0  0  0  0  0  0
    4.0532   -0.2103    0.0000 O   0  0  0  0  0  0  0  0  0  0  0  0
    4.7677    1.0272    0.0000 C   0  0  0  0  0  0  0  0  0  0  0  0
    5.4821    0.6147    0.0000 C   0  0  0  0  0  0  0  0  0  0  0  0
    6.1966    1.0272    0.0000 C   0  0  0  0  0  0  0  0  0  0  0  0
    6.1966    1.8522    0.0000 C   0  0  0  0  0  0  0  0  0  0  0  0
    5.4821    2.2647    0.0000 C   0  0  0  0  0  0  0  0  0  0  0  0
    4.7677    1.8522    0.0000 C   0  0  0  0  0  0  0  0  0  0  0  0
    4.0532    2.2647    0.0000 O   0  0  0  0  0  0  0  0  0  0  0  0
   -0.5356    1.7417    0.0000 H   0  0  0  0  0  0  0  0  0  0  0  0
   -1.6626    1.4397    0.0000 H   0  0  0  0  0  0  0  0  0  0  0  0
   -1.3606    0.3127    0.0000 H   0  0  0  0  0  0  0  0  0  0  0  0
   -0.6039   -0.1225    0.0000 H   0  0  0  0  0  0  0  0  0  0  0  0
    0.1366   -0.1225    0.0000 H   0  0  0  0  0  0  0  0  0  0  0  0
    0.8511    1.7645    0.0000 H   0  0  0  0  0  0  0  0  0  0  0  0
    0.1106    1.7645    0.0000 H   0  0  0  0  0  0  0  0  0  0  0  0
    0.8250   -0.1225    0.0000 H   0  0  0  0  0  0  0  0  0  0  0  0
    1.5656   -0.1225    0.0000 H   0  0  0  0  0  0  0  0  0  0  0  0
    2.2800    1.7645    0.0000 H   0  0  0  0  0  0  0  0  0  0  0  0
    1.5395    1.7645    0.0000 H   0  0  0  0  0  0  0  0  0  0  0  0
    2.2540   -0.1225    0.0000 H   0  0  0  0  0  0  0  0  0  0  0  0
    2.9945   -0.1225    0.0000 H   0  0  0  0  0  0  0  0  0  0  0  0
    5.4821   -0.2103    0.0000 H   0  0  0  0  0  0  0  0  0  0  0  0
    6.9111    0.6147    0.0000 H   0  0  0  0  0  0  0  0  0  0  0  0
    6.9111    2.2647    0.0000 H   0  0  0  0  0  0  0  0  0  0  0  0
    5.4821    3.0897    0.0000 H   0  0  0  0  0  0  0  0  0  0  0  0
    4.0532    3.0897    0.0000 H   0  0  0  0  0  0  0  0  0  0  0  0
  1  2  1  0  0  0  0
  2  3  1  0  0  0  0
  3  4  1  0  0  0  0
  4  5  1  0  0  0  0
  5  6  1  0  0  0  0
  6  7  1  0  0  0  0
  7  8  1  0  0  0  0
  8  9  2  0  0  0  0
  8 10  1  0  0  0  0
 11 10  4  0  0  0  0
 12 11  4  0  0  0  0
 13 12  4  0  0  0  0
 14 13  4  0  0  0  0
 15 14  4  0  0  0  0
 15 16  1  0  0  0  0
 10 15  4  0  0  0  0
  1 17  1  0  0  0  0
  1 18  1  0  0  0  0
  1 19  1  0  0  0  0
  2 20  1  0  0  0  0
  2 21  1  0  0  0  0
  3 22  1  0  0  0  0
  3 23  1  0  0  0  0
  4 24  1  0  0  0  0
  4 25  1  0  0  0  0
  5 26  1  0  0  0  0
  5 27  1  0  0  0  0
  6 28  1  0  0  0  0
  6 29  1  0  0  0  0
 11 30  1  0  0  0  0
 12 31  1  0  0  0  0
 13 32  1  0  0  0  0
 14 33  1  0  0  0  0
 16 34  1  0  0  0  0
M  END
>  <id_input>
4478

>  <InChIKey>
DUKPKQFHJQGTGU-UHFFFAOYSA-N

>  <substance_name>
hexyl 2-hydroxybenzoate

>  <casrn>
6259-76-3

>  <Molecular weight>
222.2802276611328

>  <guideline>
OECD Guideline 404 (Acute Dermal Irritation / Corrosion)

>  <species>
rabbit

>  <type_of_coverage>
semiocclusive

>  <max_duration(hrs)>
4.0

>  <vehicle>
unchanged (no vehicle)

>  <edema/ erythema score>
2.0

>  <max_score>
4.0

>  <reversibility>
0.0

>  <Outcome>
1

>  <StandardizerResult>
Remove Explicit Hydrogens (ID: RemoveExplicitH)
Dearomatize (ID: Dearomatize)
Clear Stereo (ID: ClearStereo)
Wedge Clean (ID: WedgeClean)
Mesomerize (ID: Mesomerize)
Tautomerize (ID: Tautomerize)
Aromatize (ID: Aromatize)
Add Explicit Hydrogens (ID: AddExplicitH)
Neutralize (ID: Neutralize)
Clean 2D (ID: Clean2D)


$$$$

  Mrv1812 02121911042D          

  8  7  0  0  0  0            999 V2000
    0.6528    0.8968    0.0000 C   0  0  0  0  0  0  0  0  0  0  0  0
    0.2403    0.1823    0.0000 C   0  0  0  0  0  0  0  0  0  0  0  0
    0.6528   -0.5321    0.0000 S   0  0  0  0  0  0  0  0  0  0  0  0
   -0.5847    0.1823    0.0000 O   0  0  0  0  0  0  0  0  0  0  0  0
    1.3673    0.4843    0.0000 H   0  0  0  0  0  0  0  0  0  0  0  0
    1.0653    1.6113    0.0000 H   0  0  0  0  0  0  0  0  0  0  0  0
   -0.0617    1.3093    0.0000 H   0  0  0  0  0  0  0  0  0  0  0  0
    0.2403   -1.2466    0.0000 H   0  0  0  0  0  0  0  0  0  0  0  0
  1  2  1  0  0  0  0
  2  3  1  0  0  0  0
  2  4  2  0  0  0  0
  1  5  1  0  0  0  0
  1  6  1  0  0  0  0
  1  7  1  0  0  0  0
  3  8  1  0  0  0  0
M  END
>  <id_input>
4319

>  <InChIKey>
DUYAAUVXQSMXQP-UHFFFAOYSA-N

>  <substance_name>
ethanethioic S-acid

>  <casrn>
507-09-5

>  <Molecular weight>
76.11756134033203

>  <guideline>
OECD Guideline 404 (Acute Dermal Irritation / Corrosion)

>  <species>
rabbit

>  <type_of_coverage>
semiocclusive

>  <max_duration(hrs)>
4.0

>  <vehicle>
unchanged (no vehicle)

>  <edema/ erythema score>
1.8

>  <max_score>
4.0

>  <reversibility>
0.0

>  <Outcome>
1

>  <StandardizerResult>
Remove Explicit Hydrogens (ID: RemoveExplicitH)
Clear Stereo (ID: ClearStereo)
Wedge Clean (ID: WedgeClean)
Mesomerize (ID: Mesomerize)
Tautomerize (ID: Tautomerize)
Add Explicit Hydrogens (ID: AddExplicitH)
Neutralize (ID: Neutralize)
Clean 2D (ID: Clean2D)


$$$$

  Mrv1812 02121911042D          

 56 55  0  0  0  0            999 V2000
   -4.4721    4.9992    0.0000 C   0  0  0  0  0  0  0  0  0  0  0  0
   -3.7576    5.4117    0.0000 C   0  0  0  0  0  0  0  0  0  0  0  0
   -3.7576    6.2367    0.0000 C   0  0  0  0  0  0  0  0  0  0  0  0
   -3.0432    4.9992    0.0000 C   0  0  0  0  0  0  0  0  0  0  0  0
   -2.3287    5.4117    0.0000 C   0  0  0  0  0  0  0  0  0  0  0  0
   -1.6142    4.9992    0.0000 C   0  0  0  0  0  0  0  0  0  0  0  0
   -0.8997    5.4117    0.0000 C   0  0  0  0  0  0  0  0  0  0  0  0
   -0.1853    4.9992    0.0000 C   0  0  0  0  0  0  0  0  0  0  0  0
    0.5292    5.4117    0.0000 O   0  0  0  0  0  0  0  0  0  0  0  0
    1.2437    4.9992    0.0000 P   0  0  0  0  0  0  0  0  0  0  0  0
    0.8312    4.2847    0.0000 S   0  0  0  0  0  0  0  0  0  0  0  0
    1.6562    5.7137    0.0000 S   0  0  0  0  0  0  0  0  0  0  0  0
    1.9581    4.5867    0.0000 O   0  0  0  0  0  0  0  0  0  0  0  0
    2.6726    4.9992    0.0000 C   0  0  0  0  0  0  0  0  0  0  0  0
    3.3871    4.5867    0.0000 C   0  0  0  0  0  0  0  0  0  0  0  0
    4.1016    4.9992    0.0000 C   0  0  0  0  0  0  0  0  0  0  0  0
    4.8160    4.5867    0.0000 C   0  0  0  0  0  0  0  0  0  0  0  0
    5.5305    4.9992    0.0000 C   0  0  0  0  0  0  0  0  0  0  0  0
    6.2450    4.5867    0.0000 C   0  0  0  0  0  0  0  0  0  0  0  0
    6.9594    4.9992    0.0000 C   0  0  0  0  0  0  0  0  0  0  0  0
    6.2450    3.7617    0.0000 C   0  0  0  0  0  0  0  0  0  0  0  0
   -4.8846    5.7137    0.0000 H   0  0  0  0  0  0  0  0  0  0  0  0
   -5.1866    4.5867    0.0000 H   0  0  0  0  0  0  0  0  0  0  0  0
   -4.0596    4.2847    0.0000 H   0  0  0  0  0  0  0  0  0  0  0  0
   -4.4721    5.8242    0.0000 H   0  0  0  0  0  0  0  0  0  0  0  0
   -2.9607    6.0232    0.0000 H   0  0  0  0  0  0  0  0  0  0  0  0
   -3.3451    6.9512    0.0000 H   0  0  0  0  0  0  0  0  0  0  0  0
   -4.3410    6.8201    0.0000 H   0  0  0  0  0  0  0  0  0  0  0  0
   -3.4134    4.2620    0.0000 H   0  0  0  0  0  0  0  0  0  0  0  0
   -2.6729    4.2620    0.0000 H   0  0  0  0  0  0  0  0  0  0  0  0
   -1.8319    6.0703    0.0000 H   0  0  0  0  0  0  0  0  0  0  0  0
   -2.3287    4.5867    0.0000 H   0  0  0  0  0  0  0  0  0  0  0  0
   -1.4710    4.1867    0.0000 H   0  0  0  0  0  0  0  0  0  0  0  0
   -0.9822    4.4689    0.0000 H   0  0  0  0  0  0  0  0  0  0  0  0
   -0.5295    6.1489    0.0000 H   0  0  0  0  0  0  0  0  0  0  0  0
   -1.2700    6.1489    0.0000 H   0  0  0  0  0  0  0  0  0  0  0  0
   -0.1503    4.1749    0.0000 H   0  0  0  0  0  0  0  0  0  0  0  0
    0.5378    4.6019    0.0000 H   0  0  0  0  0  0  0  0  0  0  0  0
    0.9229    3.4648    0.0000 H   0  0  0  0  0  0  0  0  0  0  0  0
    3.0429    5.7364    0.0000 H   0  0  0  0  0  0  0  0  0  0  0  0
    2.3024    5.7364    0.0000 H   0  0  0  0  0  0  0  0  0  0  0  0
    3.0168    3.8495    0.0000 H   0  0  0  0  0  0  0  0  0  0  0  0
    3.7573    3.8495    0.0000 H   0  0  0  0  0  0  0  0  0  0  0  0
    4.4718    5.7364    0.0000 H   0  0  0  0  0  0  0  0  0  0  0  0
    3.7313    5.7364    0.0000 H   0  0  0  0  0  0  0  0  0  0  0  0
    4.4458    3.8495    0.0000 H   0  0  0  0  0  0  0  0  0  0  0  0
    5.1863    3.8495    0.0000 H   0  0  0  0  0  0  0  0  0  0  0  0
    5.9008    5.7364    0.0000 H   0  0  0  0  0  0  0  0  0  0  0  0
    5.1602    5.7364    0.0000 H   0  0  0  0  0  0  0  0  0  0  0  0
    6.2450    5.4117    0.0000 H   0  0  0  0  0  0  0  0  0  0  0  0
    7.1730    4.2023    0.0000 H   0  0  0  0  0  0  0  0  0  0  0  0
    7.7844    4.9992    0.0000 H   0  0  0  0  0  0  0  0  0  0  0  0
    7.1730    5.7961    0.0000 H   0  0  0  0  0  0  0  0  0  0  0  0
    5.4200    3.7617    0.0000 H   0  0  0  0  0  0  0  0  0  0  0  0
    6.2450    2.9367    0.0000 H   0  0  0  0  0  0  0  0  0  0  0  0
    7.0700    3.7617    0.0000 H   0  0  0  0  0  0  0  0  0  0  0  0
  1  2  1  0  0  0  0
  2  3  1  0  0  0  0
  2  4  1  0  0  0  0
  4  5  1  0  0  0  0
  5  6  1  0  0  0  0
  6  7  1  0  0  0  0
  7  8  1  0  0  0  0
  8  9  1  0  0  0  0
  9 10  1  0  0  0  0
 10 11  1  0  0  0  0
 10 12  2  0  0  0  0
 10 13  1  0  0  0  0
 13 14  1  0  0  0  0
 14 15  1  0  0  0  0
 15 16  1  0  0  0  0
 16 17  1  0  0  0  0
 17 18  1  0  0  0  0
 18 19  1  0  0  0  0
 19 20  1  0  0  0  0
 19 21  1  0  0  0  0
  1 22  1  0  0  0  0
  1 23  1  0  0  0  0
  1 24  1  0  0  0  0
  2 25  1  0  0  0  0
  3 26  1  0  0  0  0
  3 27  1  0  0  0  0
  3 28  1  0  0  0  0
  4 29  1  0  0  0  0
  4 30  1  0  0  0  0
  5 31  1  0  0  0  0
  5 32  1  0  0  0  0
  6 33  1  0  0  0  0
  6 34  1  0  0  0  0
  7 35  1  0  0  0  0
  7 36  1  0  0  0  0
  8 37  1  0  0  0  0
  8 38  1  0  0  0  0
 11 39  1  0  0  0  0
 14 40  1  0  0  0  0
 14 41  1  0  0  0  0
 15 42  1  0  0  0  0
 15 43  1  0  0  0  0
 16 44  1  0  0  0  0
 16 45  1  0  0  0  0
 17 46  1  0  0  0  0
 17 47  1  0  0  0  0
 18 48  1  0  0  0  0
 18 49  1  0  0  0  0
 19 50  1  0  0  0  0
 20 51  1  0  0  0  0
 20 52  1  0  0  0  0
 20 53  1  0  0  0  0
 21 54  1  0  0  0  0
 21 55  1  0  0  0  0
 21 56  1  0  0  0  0
M  END
>  <id_input>
6151, 6150

>  <InChIKey>
DXECDJILNIXBML-UHFFFAOYSA-N

>  <substance_name>
zinc bis(O,O-diisooctyl) bis(dithiophosphate)

>  <casrn>
28629-66-5

>  <Molecular weight>
353.5437316894531

>  <guideline>
EPA OPPTS 870.2500 (Acute Dermal Irritation)

>  <species>
rabbit

>  <type_of_coverage>
semiocclusive

>  <max_duration(hrs)>
4.0

>  <vehicle>
other: mineral oil

>  <edema/ erythema score>
2.505

>  <max_score>
4.0

>  <reversibility>
0.5

>  <Outcome>
1

>  <StandardizerResult>
Remove Explicit Hydrogens (ID: RemoveExplicitH)
Clear Stereo (ID: ClearStereo)
Wedge Clean (ID: WedgeClean)
Mesomerize (ID: Mesomerize)
Tautomerize (ID: Tautomerize)
Add Explicit Hydrogens (ID: AddExplicitH)
Neutralize (ID: Neutralize)
Clean 2D (ID: Clean2D)


$$$$

  Mrv1812 02121911042D          

 17 16  0  0  0  0            999 V2000
    0.0000    0.0030    0.0000 C   0  0  0  0  0  0  0  0  0  0  0  0
    0.7145    0.4155    0.0000 O   0  0  0  0  0  0  0  0  0  0  0  0
    1.4290    0.0030    0.0000 C   0  0  0  0  0  0  0  0  0  0  0  0
    2.1435    0.4155    0.0000 C   0  0  0  0  0  0  0  0  0  0  0  0
    2.8579    0.0030    0.0000 C   0  0  0  0  0  0  0  0  0  0  0  0
    3.5724    0.4155    0.0000 N   0  0  0  0  0  0  0  0  0  0  0  0
   -0.4125    0.7175    0.0000 H   0  0  0  0  0  0  0  0  0  0  0  0
   -0.7144   -0.4095    0.0000 H   0  0  0  0  0  0  0  0  0  0  0  0
    0.4125   -0.7114    0.0000 H   0  0  0  0  0  0  0  0  0  0  0  0
    1.0587   -0.7342    0.0000 H   0  0  0  0  0  0  0  0  0  0  0  0
    1.7992   -0.7342    0.0000 H   0  0  0  0  0  0  0  0  0  0  0  0
    2.5137    1.1528    0.0000 H   0  0  0  0  0  0  0  0  0  0  0  0
    1.7732    1.1528    0.0000 H   0  0  0  0  0  0  0  0  0  0  0  0
    2.4877   -0.7342    0.0000 H   0  0  0  0  0  0  0  0  0  0  0  0
    3.2282   -0.7342    0.0000 H   0  0  0  0  0  0  0  0  0  0  0  0
    4.2869    0.0030    0.0000 H   0  0  0  0  0  0  0  0  0  0  0  0
    3.5724    1.2405    0.0000 H   0  0  0  0  0  0  0  0  0  0  0  0
  1  2  1  0  0  0  0
  2  3  1  0  0  0  0
  3  4  1  0  0  0  0
  4  5  1  0  0  0  0
  5  6  1  0  0  0  0
  1  7  1  0  0  0  0
  1  8  1  0  0  0  0
  1  9  1  0  0  0  0
  3 10  1  0  0  0  0
  3 11  1  0  0  0  0
  4 12  1  0  0  0  0
  4 13  1  0  0  0  0
  5 14  1  0  0  0  0
  5 15  1  0  0  0  0
  6 16  1  0  0  0  0
  6 17  1  0  0  0  0
M  END
>  <id_input>
2760

>  <InChIKey>
FAXDZWQIWUSWJH-UHFFFAOYSA-N

>  <substance_name>
3-methoxypropan-1-amine

>  <casrn>
5332-73-0

>  <Molecular weight>
89.13623809814453

>  <guideline>
OECD Guideline 404 (Acute Dermal Irritation / Corrosion)

>  <species>
rabbit

>  <type_of_coverage>
semiocclusive

>  <max_duration(hrs)>
4.0

>  <vehicle>
unchanged (no vehicle)

>  <edema/ erythema score>
4.0

>  <max_score>
4.0

>  <reversibility>
1.0

>  <Outcome>
1

>  <StandardizerResult>
Remove Explicit Hydrogens (ID: RemoveExplicitH)
Clear Stereo (ID: ClearStereo)
Wedge Clean (ID: WedgeClean)
Mesomerize (ID: Mesomerize)
Tautomerize (ID: Tautomerize)
Add Explicit Hydrogens (ID: AddExplicitH)
Neutralize (ID: Neutralize)
Clean 2D (ID: Clean2D)


$$$$

  Mrv1812 02121911042D          

  7  6  0  0  0  0            999 V2000
   -0.0905    1.0365    0.0000 Cl  0  0  0  0  0  0  0  0  0  0  0  0
    0.3220    0.3220    0.0000 C   0  0  0  0  0  0  0  0  0  0  0  0
    1.1470    0.3220    0.0000 Cl  0  0  0  0  0  0  0  0  0  0  0  0
   -0.0905   -0.3925    0.0000 C   0  0  0  0  0  0  0  0  0  0  0  0
    0.3220   -1.1069    0.0000 Cl  0  0  0  0  0  0  0  0  0  0  0  0
   -0.9155   -0.3925    0.0000 O   0  0  0  0  0  0  0  0  0  0  0  0
    0.7345    1.0365    0.0000 H   0  0  0  0  0  0  0  0  0  0  0  0
  1  2  1  0  0  0  0
  2  3  1  0  0  0  0
  2  4  1  0  0  0  0
  4  5  1  0  0  0  0
  4  6  2  0  0  0  0
  2  7  1  0  0  0  0
M  END
>  <id_input>
4132

>  <InChIKey>
FBCCMZVIWNDFMO-UHFFFAOYSA-N

>  <substance_name>
dichloroacetyl chloride

>  <casrn>
79-36-7

>  <Molecular weight>
147.3877410888672

>  <guideline>
OECD Guideline 404 (Acute Dermal Irritation / Corrosion)

>  <species>
rabbit

>  <type_of_coverage>
occlusive

>  <max_duration(hrs)>
4.0

>  <vehicle>
not specified

>  <edema/ erythema score>
2.5

>  <max_score>
3.0

>  <reversibility>
1.0

>  <Outcome>
1

>  <StandardizerResult>
Remove Explicit Hydrogens (ID: RemoveExplicitH)
Clear Stereo (ID: ClearStereo)
Wedge Clean (ID: WedgeClean)
Mesomerize (ID: Mesomerize)
Tautomerize (ID: Tautomerize)
Add Explicit Hydrogens (ID: AddExplicitH)
Neutralize (ID: Neutralize)
Clean 2D (ID: Clean2D)


$$$$

  Mrv1812 02121911042D          

 29 28  0  0  0  0            999 V2000
   -0.0001   -0.0018    0.0000 C   0  0  0  0  0  0  0  0  0  0  0  0
    0.7144    0.4107    0.0000 C   0  0  0  0  0  0  0  0  0  0  0  0
    1.4288   -0.0018    0.0000 C   0  0  0  0  0  0  0  0  0  0  0  0
    2.1433    0.4107    0.0000 C   0  0  0  0  0  0  0  0  0  0  0  0
    2.8578   -0.0018    0.0000 C   0  0  0  0  0  0  0  0  0  0  0  0
    3.5723    0.4107    0.0000 C   0  0  0  0  0  0  0  0  0  0  0  0
    4.2867   -0.0018    0.0000 C   0  0  0  0  0  0  0  0  0  0  0  0
    5.0012    0.4107    0.0000 C   0  0  0  0  0  0  0  0  0  0  0  0
    5.7157   -0.0018    0.0000 C   0  0  0  0  0  0  0  0  0  0  0  0
    6.4301    0.4107    0.0000 O   0  0  0  0  0  0  0  0  0  0  0  0
    5.7157   -0.8268    0.0000 O   0  0  0  0  0  0  0  0  0  0  0  0
   -0.4126    0.7127    0.0000 H   0  0  0  0  0  0  0  0  0  0  0  0
   -0.7146   -0.4143    0.0000 H   0  0  0  0  0  0  0  0  0  0  0  0
    0.4124   -0.7163    0.0000 H   0  0  0  0  0  0  0  0  0  0  0  0
    1.0846    1.1479    0.0000 H   0  0  0  0  0  0  0  0  0  0  0  0
    0.3441    1.1479    0.0000 H   0  0  0  0  0  0  0  0  0  0  0  0
    1.0586   -0.7391    0.0000 H   0  0  0  0  0  0  0  0  0  0  0  0
    1.7991   -0.7391    0.0000 H   0  0  0  0  0  0  0  0  0  0  0  0
    2.5136    1.1479    0.0000 H   0  0  0  0  0  0  0  0  0  0  0  0
    1.7731    1.1479    0.0000 H   0  0  0  0  0  0  0  0  0  0  0  0
    2.4875   -0.7391    0.0000 H   0  0  0  0  0  0  0  0  0  0  0  0
    3.2280   -0.7391    0.0000 H   0  0  0  0  0  0  0  0  0  0  0  0
    3.9425    1.1479    0.0000 H   0  0  0  0  0  0  0  0  0  0  0  0
    3.2020    1.1479    0.0000 H   0  0  0  0  0  0  0  0  0  0  0  0
    3.9165   -0.7391    0.0000 H   0  0  0  0  0  0  0  0  0  0  0  0
    4.6570   -0.7391    0.0000 H   0  0  0  0  0  0  0  0  0  0  0  0
    5.3715    1.1479    0.0000 H   0  0  0  0  0  0  0  0  0  0  0  0
    4.6309    1.1479    0.0000 H   0  0  0  0  0  0  0  0  0  0  0  0
    7.1446   -0.0018    0.0000 H   0  0  0  0  0  0  0  0  0  0  0  0
  1  2  1  0  0  0  0
  2  3  1  0  0  0  0
  3  4  1  0  0  0  0
  4  5  1  0  0  0  0
  5  6  1  0  0  0  0
  6  7  1  0  0  0  0
  7  8  1  0  0  0  0
  8  9  1  0  0  0  0
  9 10  1  0  0  0  0
  9 11  2  0  0  0  0
  1 12  1  0  0  0  0
  1 13  1  0  0  0  0
  1 14  1  0  0  0  0
  2 15  1  0  0  0  0
  2 16  1  0  0  0  0
  3 17  1  0  0  0  0
  3 18  1  0  0  0  0
  4 19  1  0  0  0  0
  4 20  1  0  0  0  0
  5 21  1  0  0  0  0
  5 22  1  0  0  0  0
  6 23  1  0  0  0  0
  6 24  1  0  0  0  0
  7 25  1  0  0  0  0
  7 26  1  0  0  0  0
  8 27  1  0  0  0  0
  8 28  1  0  0  0  0
 10 29  1  0  0  0  0
M  END
>  <id_input>
3305, 3307, 4615, 3306, 4614

>  <InChIKey>
FBUKVWPVBMHYJY-UHFFFAOYSA-N

>  <substance_name>
Fatty acids, C8-10

>  <casrn>
68937-75-7

>  <Molecular weight>
158.23802185058594

>  <guideline>
OECD Guideline 404 (Acute Dermal Irritation / Corrosion)

>  <species>
rabbit

>  <type_of_coverage>
semiocclusive

>  <max_duration(hrs)>
4.0

>  <vehicle>
unchanged (no vehicle)

>  <edema/ erythema score>
3.365333333333332

>  <max_score>
3.8

>  <reversibility>
0.4

>  <Outcome>
1

>  <StandardizerResult>
Remove Explicit Hydrogens (ID: RemoveExplicitH)
Clear Stereo (ID: ClearStereo)
Wedge Clean (ID: WedgeClean)
Mesomerize (ID: Mesomerize)
Tautomerize (ID: Tautomerize)
Add Explicit Hydrogens (ID: AddExplicitH)
Neutralize (ID: Neutralize)
Clean 2D (ID: Clean2D)


$$$$

  Mrv1812 02121911042D          

 26 25  0  0  0  0            999 V2000
    4.0393    1.9622    0.0000 C   0  0  0  0  0  0  0  0  0  0  0  0
    3.2143    1.9622    0.0000 C   0  0  0  0  0  0  0  0  0  0  0  0
    2.8018    1.2477    0.0000 C   0  0  0  0  0  0  0  0  0  0  0  0
    1.9768    1.2477    0.0000 C   0  0  0  0  0  0  0  0  0  0  0  0
    1.5643    0.5332    0.0000 C   0  0  0  0  0  0  0  0  0  0  0  0
    0.7393    0.5332    0.0000 C   0  0  0  0  0  0  0  0  0  0  0  0
    0.3268   -0.1812    0.0000 C   0  0  0  0  0  0  0  0  0  0  0  0
   -0.4982   -0.1812    0.0000 C   0  0  0  0  0  0  0  0  0  0  0  0
   -0.9107   -0.8957    0.0000 C   0  0  0  0  0  0  0  0  0  0  0  0
   -0.4982   -1.6102    0.0000 C   0  0  0  0  0  0  0  0  0  0  0  0
    4.0393    1.1372    0.0000 H   0  0  0  0  0  0  0  0  0  0  0  0
    4.8643    1.9622    0.0000 H   0  0  0  0  0  0  0  0  0  0  0  0
    4.0393    2.7872    0.0000 H   0  0  0  0  0  0  0  0  0  0  0  0
    3.1664    2.7858    0.0000 H   0  0  0  0  0  0  0  0  0  0  0  0
    2.5251    2.4155    0.0000 H   0  0  0  0  0  0  0  0  0  0  0  0
    3.2143    0.5332    0.0000 H   0  0  0  0  0  0  0  0  0  0  0  0
    1.5643    1.9622    0.0000 H   0  0  0  0  0  0  0  0  0  0  0  0
    1.6123   -0.2904    0.0000 H   0  0  0  0  0  0  0  0  0  0  0  0
    2.2536    0.0799    0.0000 H   0  0  0  0  0  0  0  0  0  0  0  0
    0.6914    1.3568    0.0000 H   0  0  0  0  0  0  0  0  0  0  0  0
    0.0501    0.9866    0.0000 H   0  0  0  0  0  0  0  0  0  0  0  0
    0.7393   -0.8957    0.0000 H   0  0  0  0  0  0  0  0  0  0  0  0
   -0.9107    0.5332    0.0000 H   0  0  0  0  0  0  0  0  0  0  0  0
   -1.7357   -0.8957    0.0000 H   0  0  0  0  0  0  0  0  0  0  0  0
   -0.9107   -2.3246    0.0000 H   0  0  0  0  0  0  0  0  0  0  0  0
    0.3268   -1.6102    0.0000 H   0  0  0  0  0  0  0  0  0  0  0  0
  1  2  1  0  0  0  0
  3  2  1  4  0  0  0
  3  4  2  0  0  0  0
  4  5  1  0  0  0  0
  5  6  1  0  0  0  0
  7  6  1  4  0  0  0
  7  8  2  0  0  0  0
  8  9  1  0  0  0  0
  9 10  2  0  0  0  0
  1 11  1  0  0  0  0
  1 12  1  0  0  0  0
  1 13  1  0  0  0  0
  2 14  1  0  0  0  0
  2 15  1  0  0  0  0
  3 16  1  0  0  0  0
  4 17  1  0  0  0  0
  5 18  1  0  0  0  0
  5 19  1  0  0  0  0
  6 20  1  0  0  0  0
  6 21  1  0  0  0  0
  7 22  1  0  0  0  0
  8 23  1  0  0  0  0
  9 24  1  0  0  0  0
 10 25  1  0  0  0  0
 10 26  1  0  0  0  0
M  END
>  <id_input>
3147, 4073, 3148, 3150, 4074, 4075, 3149, 4072

>  <InChIKey>
FDBJNQUXZRDJHC-UHFFFAOYSA-N

>  <substance_name>
Alkenes, C9-11, C10-rich

>  <casrn>
68526-56-7

>  <Molecular weight>
136.23403930664062

>  <guideline>
OECD Guideline 404 (Acute Dermal Irritation / Corrosion)

>  <species>
rabbit

>  <type_of_coverage>
occlusive

>  <max_duration(hrs)>
4.0

>  <vehicle>
unchanged (no vehicle)

>  <edema/ erythema score>
3.375

>  <max_score>
4.0

>  <reversibility>
0.5000000000000001

>  <Outcome>
1

>  <StandardizerResult>
Remove Explicit Hydrogens (ID: RemoveExplicitH)
Clear Stereo (ID: ClearStereo)
Wedge Clean (ID: WedgeClean)
Mesomerize (ID: Mesomerize)
Tautomerize (ID: Tautomerize)
Add Explicit Hydrogens (ID: AddExplicitH)
Neutralize (ID: Neutralize)
Clean 2D (ID: Clean2D)


$$$$

  Mrv1812 02121911042D          

 36 35  0  0  0  0            999 V2000
   -0.4207   -0.6904    0.0000 C   0  0  0  0  0  0  0  0  0  0  0  0
    0.2937   -0.2779    0.0000 C   0  0  0  0  0  0  0  0  0  0  0  0
    1.0082   -0.6904    0.0000 C   0  0  0  0  0  0  0  0  0  0  0  0
    1.7227   -0.2779    0.0000 C   0  0  0  0  0  0  0  0  0  0  0  0
    2.4372   -0.6904    0.0000 C   0  0  0  0  0  0  0  0  0  0  0  0
    2.4372   -1.5154    0.0000 C   0  0  0  0  0  0  0  0  0  0  0  0
    3.1516   -1.9279    0.0000 C   0  0  0  0  0  0  0  0  0  0  0  0
    3.1516   -0.2779    0.0000 C   0  0  0  0  0  0  0  0  0  0  0  0
    3.8661   -0.6904    0.0000 O   0  0  0  0  0  0  0  0  0  0  0  0
    4.5806   -0.2779    0.0000 C   0  0  0  0  0  0  0  0  0  0  0  0
    4.5806    0.5471    0.0000 O   0  0  0  0  0  0  0  0  0  0  0  0
    5.2950   -0.6904    0.0000 C   0  0  0  0  0  0  0  0  0  0  0  0
    6.0095   -0.2779    0.0000 C   0  0  0  0  0  0  0  0  0  0  0  0
    5.2950   -1.5154    0.0000 O   0  0  0  0  0  0  0  0  0  0  0  0
   -0.8332    0.0241    0.0000 H   0  0  0  0  0  0  0  0  0  0  0  0
   -1.1352   -1.1029    0.0000 H   0  0  0  0  0  0  0  0  0  0  0  0
   -0.0082   -1.4048    0.0000 H   0  0  0  0  0  0  0  0  0  0  0  0
    0.6640    0.4594    0.0000 H   0  0  0  0  0  0  0  0  0  0  0  0
   -0.0765    0.4594    0.0000 H   0  0  0  0  0  0  0  0  0  0  0  0
    0.6380   -1.4276    0.0000 H   0  0  0  0  0  0  0  0  0  0  0  0
    1.3785   -1.4276    0.0000 H   0  0  0  0  0  0  0  0  0  0  0  0
    2.0929    0.4594    0.0000 H   0  0  0  0  0  0  0  0  0  0  0  0
    1.3524    0.4594    0.0000 H   0  0  0  0  0  0  0  0  0  0  0  0
    1.7227   -1.1029    0.0000 H   0  0  0  0  0  0  0  0  0  0  0  0
    1.8052   -2.0457    0.0000 H   0  0  0  0  0  0  0  0  0  0  0  0
    2.2939   -2.3278    0.0000 H   0  0  0  0  0  0  0  0  0  0  0  0
    3.3126   -2.7370    0.0000 H   0  0  0  0  0  0  0  0  0  0  0  0
    3.9758   -1.9639    0.0000 H   0  0  0  0  0  0  0  0  0  0  0  0
    3.3825   -1.1358    0.0000 H   0  0  0  0  0  0  0  0  0  0  0  0
    3.5219    0.4594    0.0000 H   0  0  0  0  0  0  0  0  0  0  0  0
    2.7814    0.4594    0.0000 H   0  0  0  0  0  0  0  0  0  0  0  0
    5.2950    0.1346    0.0000 H   0  0  0  0  0  0  0  0  0  0  0  0
    6.2230   -1.0748    0.0000 H   0  0  0  0  0  0  0  0  0  0  0  0
    6.8345   -0.2779    0.0000 H   0  0  0  0  0  0  0  0  0  0  0  0
    6.2230    0.5190    0.0000 H   0  0  0  0  0  0  0  0  0  0  0  0
    4.5806   -1.9279    0.0000 H   0  0  0  0  0  0  0  0  0  0  0  0
  1  2  1  0  0  0  0
  2  3  1  0  0  0  0
  3  4  1  0  0  0  0
  4  5  1  0  0  0  0
  5  6  1  0  0  0  0
  6  7  1  0  0  0  0
  5  8  1  0  0  0  0
  8  9  1  0  0  0  0
  9 10  1  0  0  0  0
 10 11  2  0  0  0  0
 10 12  1  0  0  0  0
 12 13  1  0  0  0  0
 12 14  1  0  0  0  0
  1 15  1  0  0  0  0
  1 16  1  0  0  0  0
  1 17  1  0  0  0  0
  2 18  1  0  0  0  0
  2 19  1  0  0  0  0
  3 20  1  0  0  0  0
  3 21  1  0  0  0  0
  4 22  1  0  0  0  0
  4 23  1  0  0  0  0
  5 24  1  0  0  0  0
  6 25  1  0  0  0  0
  6 26  1  0  0  0  0
  7 27  1  0  0  0  0
  7 28  1  0  0  0  0
  7 29  1  0  0  0  0
  8 30  1  0  0  0  0
  8 31  1  0  0  0  0
 12 32  1  0  0  0  0
 13 33  1  0  0  0  0
 13 34  1  0  0  0  0
 13 35  1  0  0  0  0
 14 36  1  0  0  0  0
M  END
>  <id_input>
852

>  <InChIKey>
FECDACOUYKFOOP-UHFFFAOYSA-N

>  <substance_name>
-

>  <casrn>
186817-80-1

>  <Molecular weight>
202.29058837890625

>  <guideline>
OECD Guideline 404 (Acute Dermal Irritation / Corrosion)

>  <species>
rabbit

>  <type_of_coverage>
semiocclusive

>  <max_duration(hrs)>
4.0

>  <vehicle>
unchanged (no vehicle)

>  <edema/ erythema score>
2.0

>  <max_score>
2.0

>  <reversibility>
0.0

>  <Outcome>
1

>  <StandardizerResult>
Remove Explicit Hydrogens (ID: RemoveExplicitH)
Clear Stereo (ID: ClearStereo)
Wedge Clean (ID: WedgeClean)
Mesomerize (ID: Mesomerize)
Tautomerize (ID: Tautomerize)
Add Explicit Hydrogens (ID: AddExplicitH)
Neutralize (ID: Neutralize)
Clean 2D (ID: Clean2D)


$$$$

  Mrv1812 02121911042D          

 14 13  0  0  0  0            999 V2000
   -0.0033    0.0018    0.0000 C   0  0  0  0  0  0  0  0  0  0  0  0
    0.7112    0.4143    0.0000 C   0  0  0  0  0  0  0  0  0  0  0  0
    1.1237   -0.3001    0.0000 Cl  0  0  0  0  0  0  0  0  0  0  0  0
    0.2987    1.1288    0.0000 Cl  0  0  0  0  0  0  0  0  0  0  0  0
    1.4257    0.8268    0.0000 C   0  0  0  0  0  0  0  0  0  0  0  0
    1.4257    1.6518    0.0000 C   0  0  0  0  0  0  0  0  0  0  0  0
    1.4257    2.4768    0.0000 Cl  0  0  0  0  0  0  0  0  0  0  0  0
    2.2507    1.6518    0.0000 Cl  0  0  0  0  0  0  0  0  0  0  0  0
    0.6007    1.6518    0.0000 Cl  0  0  0  0  0  0  0  0  0  0  0  0
   -0.4158    0.7163    0.0000 H   0  0  0  0  0  0  0  0  0  0  0  0
   -0.7177   -0.4107    0.0000 H   0  0  0  0  0  0  0  0  0  0  0  0
    0.4092   -0.7126    0.0000 H   0  0  0  0  0  0  0  0  0  0  0  0
    1.8790    0.1376    0.0000 H   0  0  0  0  0  0  0  0  0  0  0  0
    2.2493    0.7789    0.0000 H   0  0  0  0  0  0  0  0  0  0  0  0
  1  2  1  0  0  0  0
  2  3  1  0  0  0  0
  2  4  1  0  0  0  0
  2  5  1  0  0  0  0
  5  6  1  0  0  0  0
  6  7  1  0  0  0  0
  6  8  1  0  0  0  0
  6  9  1  0  0  0  0
  1 10  1  0  0  0  0
  1 11  1  0  0  0  0
  1 12  1  0  0  0  0
  5 13  1  0  0  0  0
  5 14  1  0  0  0  0
M  END
>  <id_input>
1687

>  <InChIKey>
FFBFEBDZFWMXBE-UHFFFAOYSA-N

>  <substance_name>
1,1,1,3,3-pentachlorobutane

>  <casrn>
21981-33-9

>  <Molecular weight>
230.34750366210938

>  <guideline>
OECD Guideline 404 (Acute Dermal Irritation / Corrosion)

>  <species>
rabbit

>  <type_of_coverage>
semiocclusive

>  <max_duration(hrs)>
4.0

>  <vehicle>
unchanged (no vehicle)

>  <edema/ erythema score>
3.1

>  <max_score>
3.0

>  <reversibility>
0.0

>  <Outcome>
1

>  <StandardizerResult>
Remove Explicit Hydrogens (ID: RemoveExplicitH)
Clear Stereo (ID: ClearStereo)
Wedge Clean (ID: WedgeClean)
Mesomerize (ID: Mesomerize)
Tautomerize (ID: Tautomerize)
Add Explicit Hydrogens (ID: AddExplicitH)
Neutralize (ID: Neutralize)
Clean 2D (ID: Clean2D)


$$$$

  Mrv1812 02121911042D          

 37 37  0  0  0  0            999 V2000
    1.9633    3.2985    0.0000 C   0  0  0  0  0  0  0  0  0  0  0  0
    1.2488    2.8860    0.0000 C   0  0  0  0  0  0  0  0  0  0  0  0
    1.2488    2.0610    0.0000 C   0  0  0  0  0  0  0  0  0  0  0  0
    1.9633    1.6485    0.0000 C   0  0  0  0  0  0  0  0  0  0  0  0
    0.5344    1.6485    0.0000 C   0  0  0  0  0  0  0  0  0  0  0  0
   -0.1801    2.0610    0.0000 C   0  0  0  0  0  0  0  0  0  0  0  0
   -0.8946    1.6485    0.0000 C   0  0  0  0  0  0  0  0  0  0  0  0
   -0.8946    0.8235    0.0000 C   0  0  0  0  0  0  0  0  0  0  0  0
   -0.1801    0.4110    0.0000 C   0  0  0  0  0  0  0  0  0  0  0  0
   -0.1801   -0.4140    0.0000 C   0  0  0  0  0  0  0  0  0  0  0  0
    0.5344   -0.8265    0.0000 C   0  0  0  0  0  0  0  0  0  0  0  0
   -0.8946   -0.8265    0.0000 C   0  0  0  0  0  0  0  0  0  0  0  0
   -0.8946   -1.6515    0.0000 C   0  0  0  0  0  0  0  0  0  0  0  0
    0.5344    0.8235    0.0000 C   0  0  0  0  0  0  0  0  0  0  0  0
    1.2488    0.4110    0.0000 O   0  0  0  0  0  0  0  0  0  0  0  0
    2.3758    2.5840    0.0000 H   0  0  0  0  0  0  0  0  0  0  0  0
    2.6778    3.7110    0.0000 H   0  0  0  0  0  0  0  0  0  0  0  0
    1.5508    4.0130    0.0000 H   0  0  0  0  0  0  0  0  0  0  0  0
    0.7955    3.5753    0.0000 H   0  0  0  0  0  0  0  0  0  0  0  0
    0.4252    2.9340    0.0000 H   0  0  0  0  0  0  0  0  0  0  0  0
    1.9633    2.4735    0.0000 H   0  0  0  0  0  0  0  0  0  0  0  0
    1.3799    1.0652    0.0000 H   0  0  0  0  0  0  0  0  0  0  0  0
    2.3758    0.9340    0.0000 H   0  0  0  0  0  0  0  0  0  0  0  0
    2.7602    1.8620    0.0000 H   0  0  0  0  0  0  0  0  0  0  0  0
   -0.1801    2.8860    0.0000 H   0  0  0  0  0  0  0  0  0  0  0  0
   -1.6091    2.0610    0.0000 H   0  0  0  0  0  0  0  0  0  0  0  0
   -1.6091    0.4110    0.0000 H   0  0  0  0  0  0  0  0  0  0  0  0
    0.5344   -0.0015    0.0000 H   0  0  0  0  0  0  0  0  0  0  0  0
   -0.0490   -1.4098    0.0000 H   0  0  0  0  0  0  0  0  0  0  0  0
    0.9469   -1.5410    0.0000 H   0  0  0  0  0  0  0  0  0  0  0  0
    1.3312   -0.6130    0.0000 H   0  0  0  0  0  0  0  0  0  0  0  0
   -1.3479   -0.1372    0.0000 H   0  0  0  0  0  0  0  0  0  0  0  0
   -1.7182   -0.7785    0.0000 H   0  0  0  0  0  0  0  0  0  0  0  0
   -1.6769   -1.3895    0.0000 H   0  0  0  0  0  0  0  0  0  0  0  0
   -1.3914   -2.3101    0.0000 H   0  0  0  0  0  0  0  0  0  0  0  0
   -0.4278   -2.3317    0.0000 H   0  0  0  0  0  0  0  0  0  0  0  0
    1.9191   -0.0700    0.0000 H   0  0  0  0  0  0  0  0  0  0  0  0
  1  2  1  0  0  0  0
  2  3  1  0  0  0  0
  3  4  1  0  0  0  0
  3  5  1  0  0  0  0
  6  5  4  0  0  0  0
  7  6  4  0  0  0  0
  8  7  4  0  0  0  0
  9  8  4  0  0  0  0
  9 10  1  0  0  0  0
 10 11  1  0  0  0  0
 10 12  1  0  0  0  0
 12 13  1  0  0  0  0
 14  9  4  0  0  0  0
 14 15  1  0  0  0  0
  5 14  4  0  0  0  0
  1 16  1  0  0  0  0
  1 17  1  0  0  0  0
  1 18  1  0  0  0  0
  2 19  1  0  0  0  0
  2 20  1  0  0  0  0
  3 21  1  0  0  0  0
  4 22  1  0  0  0  0
  4 23  1  0  0  0  0
  4 24  1  0  0  0  0
  6 25  1  0  0  0  0
  7 26  1  0  0  0  0
  8 27  1  0  0  0  0
 10 28  1  0  0  0  0
 11 29  1  0  0  0  0
 11 30  1  0  0  0  0
 11 31  1  0  0  0  0
 12 32  1  0  0  0  0
 12 33  1  0  0  0  0
 13 34  1  0  0  0  0
 13 35  1  0  0  0  0
 13 36  1  0  0  0  0
 15 37  1  0  0  0  0
M  END
>  <id_input>
1501

>  <InChIKey>
FHTGJZOULSYEOB-UHFFFAOYSA-N

>  <substance_name>
-

>  <casrn>
5510-99-6

>  <Molecular weight>
206.32388305664062

>  <guideline>
OECD Guideline 404 (Acute Dermal Irritation / Corrosion)

>  <species>
rabbit

>  <type_of_coverage>
semiocclusive

>  <max_duration(hrs)>
4.0

>  <vehicle>
unchanged (no vehicle)

>  <edema/ erythema score>
2.0

>  <max_score>
4.0

>  <reversibility>
0.0

>  <Outcome>
1

>  <StandardizerResult>
Remove Explicit Hydrogens (ID: RemoveExplicitH)
Dearomatize (ID: Dearomatize)
Clear Stereo (ID: ClearStereo)
Wedge Clean (ID: WedgeClean)
Mesomerize (ID: Mesomerize)
Tautomerize (ID: Tautomerize)
Aromatize (ID: Aromatize)
Add Explicit Hydrogens (ID: AddExplicitH)
Neutralize (ID: Neutralize)
Clean 2D (ID: Clean2D)


$$$$

  Mrv1812 02121911042D          

 34 33  0  0  0  0            999 V2000
   -1.8493   -3.2028    0.0000 C   0  0  0  0  0  0  0  0  0  0  0  0
   -1.1348   -2.7903    0.0000 C   0  0  0  0  0  0  0  0  0  0  0  0
   -0.4204   -3.2028    0.0000 C   0  0  0  0  0  0  0  0  0  0  0  0
   -0.4204   -4.0278    0.0000 O   0  0  0  0  0  0  0  0  0  0  0  0
    0.2941   -2.7903    0.0000 O   0  0  0  0  0  0  0  0  0  0  0  0
    1.0086   -3.2028    0.0000 C   0  0  0  0  0  0  0  0  0  0  0  0
    1.7230   -2.7903    0.0000 C   0  0  0  0  0  0  0  0  0  0  0  0
    2.4375   -3.2028    0.0000 C   0  0  0  0  0  0  0  0  0  0  0  0
    3.1520   -2.7903    0.0000 C   0  0  0  0  0  0  0  0  0  0  0  0
    3.8665   -3.2028    0.0000 C   0  0  0  0  0  0  0  0  0  0  0  0
    4.5809   -2.7903    0.0000 C   0  0  0  0  0  0  0  0  0  0  0  0
    5.2954   -3.2028    0.0000 O   0  0  0  0  0  0  0  0  0  0  0  0
    6.0099   -2.7903    0.0000 C   0  0  0  0  0  0  0  0  0  0  0  0
    6.0099   -1.9653    0.0000 O   0  0  0  0  0  0  0  0  0  0  0  0
    6.7243   -3.2028    0.0000 C   0  0  0  0  0  0  0  0  0  0  0  0
    7.4388   -2.7903    0.0000 C   0  0  0  0  0  0  0  0  0  0  0  0
   -2.5638   -2.7903    0.0000 H   0  0  0  0  0  0  0  0  0  0  0  0
   -1.8493   -4.0278    0.0000 H   0  0  0  0  0  0  0  0  0  0  0  0
   -1.1348   -1.9653    0.0000 H   0  0  0  0  0  0  0  0  0  0  0  0
    0.6383   -3.9400    0.0000 H   0  0  0  0  0  0  0  0  0  0  0  0
    1.3788   -3.9400    0.0000 H   0  0  0  0  0  0  0  0  0  0  0  0
    2.0933   -2.0531    0.0000 H   0  0  0  0  0  0  0  0  0  0  0  0
    1.3528   -2.0531    0.0000 H   0  0  0  0  0  0  0  0  0  0  0  0
    2.0673   -3.9400    0.0000 H   0  0  0  0  0  0  0  0  0  0  0  0
    2.8078   -3.9400    0.0000 H   0  0  0  0  0  0  0  0  0  0  0  0
    3.5222   -2.0531    0.0000 H   0  0  0  0  0  0  0  0  0  0  0  0
    2.7817   -2.0531    0.0000 H   0  0  0  0  0  0  0  0  0  0  0  0
    3.4962   -3.9400    0.0000 H   0  0  0  0  0  0  0  0  0  0  0  0
    4.2367   -3.9400    0.0000 H   0  0  0  0  0  0  0  0  0  0  0  0
    4.9512   -2.0531    0.0000 H   0  0  0  0  0  0  0  0  0  0  0  0
    4.2107   -2.0531    0.0000 H   0  0  0  0  0  0  0  0  0  0  0  0
    6.7243   -4.0278    0.0000 H   0  0  0  0  0  0  0  0  0  0  0  0
    8.1533   -3.2028    0.0000 H   0  0  0  0  0  0  0  0  0  0  0  0
    7.4388   -1.9653    0.0000 H   0  0  0  0  0  0  0  0  0  0  0  0
  1  2  2  0  0  0  0
  2  3  1  0  0  0  0
  3  4  2  0  0  0  0
  3  5  1  0  0  0  0
  5  6  1  0  0  0  0
  6  7  1  0  0  0  0
  7  8  1  0  0  0  0
  8  9  1  0  0  0  0
  9 10  1  0  0  0  0
 10 11  1  0  0  0  0
 11 12  1  0  0  0  0
 12 13  1  0  0  0  0
 13 14  2  0  0  0  0
 13 15  1  0  0  0  0
 15 16  2  0  0  0  0
  1 17  1  0  0  0  0
  1 18  1  0  0  0  0
  2 19  1  0  0  0  0
  6 20  1  0  0  0  0
  6 21  1  0  0  0  0
  7 22  1  0  0  0  0
  7 23  1  0  0  0  0
  8 24  1  0  0  0  0
  8 25  1  0  0  0  0
  9 26  1  0  0  0  0
  9 27  1  0  0  0  0
 10 28  1  0  0  0  0
 10 29  1  0  0  0  0
 11 30  1  0  0  0  0
 11 31  1  0  0  0  0
 15 32  1  0  0  0  0
 16 33  1  0  0  0  0
 16 34  1  0  0  0  0
M  END
>  <id_input>
2998

>  <InChIKey>
FIHBHSQYSYVZQE-UHFFFAOYSA-N

>  <substance_name>
6-(prop-2-enoyloxy)hexyl prop-2-enoate

>  <casrn>
13048-33-4

>  <Molecular weight>
226.2689208984375

>  <guideline>
OECD Guideline 404 (Acute Dermal Irritation / Corrosion)

>  <species>
rabbit

>  <type_of_coverage>
semiocclusive

>  <max_duration(hrs)>
4.0

>  <vehicle>
unchanged (no vehicle)

>  <edema/ erythema score>
2.67

>  <max_score>
4.0

>  <reversibility>
0.0

>  <Outcome>
1

>  <StandardizerResult>
Remove Explicit Hydrogens (ID: RemoveExplicitH)
Clear Stereo (ID: ClearStereo)
Wedge Clean (ID: WedgeClean)
Mesomerize (ID: Mesomerize)
Tautomerize (ID: Tautomerize)
Add Explicit Hydrogens (ID: AddExplicitH)
Neutralize (ID: Neutralize)
Clean 2D (ID: Clean2D)


$$$$

  Mrv1812 02121911042D          

 45 45  0  0  0  0            999 V2000
    0.1291    2.9405    0.0000 O   0  0  0  0  0  0  0  0  0  0  0  0
    0.3541    2.1468    0.0000 C   0  0  0  0  0  0  0  0  0  0  0  0
   -0.2208    1.5551    0.0000 C   0  0  0  0  0  0  0  0  0  0  0  0
   -1.0207    1.7572    0.0000 C   0  0  0  0  0  0  0  0  0  0  0  0
   -1.5956    1.1655    0.0000 C   0  0  0  0  0  0  0  0  0  0  0  0
   -1.3706    0.3717    0.0000 C   0  0  0  0  0  0  0  0  0  0  0  0
   -1.9455   -0.2200    0.0000 C   0  0  0  0  0  0  0  0  0  0  0  0
   -1.7206   -1.0137    0.0000 C   0  0  0  0  0  0  0  0  0  0  0  0
   -0.9207   -1.2157    0.0000 C   0  0  0  0  0  0  0  0  0  0  0  0
   -0.6957   -2.0095    0.0000 C   0  0  0  0  0  0  0  0  0  0  0  0
    0.1042   -2.2115    0.0000 C   0  0  0  0  0  0  0  0  0  0  0  0
    0.6791   -1.6198    0.0000 C   0  0  0  0  0  0  0  0  0  0  0  0
    0.4541   -0.8261    0.0000 C   0  0  0  0  0  0  0  0  0  0  0  0
    1.0290   -0.2344    0.0000 C   0  0  0  0  0  0  0  0  0  0  0  0
    0.8040    0.5593    0.0000 C   0  0  0  0  0  0  0  0  0  0  0  0
    1.3790    1.1510    0.0000 C   0  0  0  0  0  0  0  0  0  0  0  0
    1.1540    1.9448    0.0000 O   0  0  0  0  0  0  0  0  0  0  0  0
   -0.3760    0.7448    0.0000 H   0  0  0  0  0  0  0  0  0  0  0  0
    0.3365    0.9468    0.0000 H   0  0  0  0  0  0  0  0  0  0  0  0
   -0.8655    2.5674    0.0000 H   0  0  0  0  0  0  0  0  0  0  0  0
   -1.5779    2.3655    0.0000 H   0  0  0  0  0  0  0  0  0  0  0  0
   -2.2197    1.7050    0.0000 H   0  0  0  0  0  0  0  0  0  0  0  0
   -2.4011    0.9870    0.0000 H   0  0  0  0  0  0  0  0  0  0  0  0
   -0.7465   -0.1678    0.0000 H   0  0  0  0  0  0  0  0  0  0  0  0
   -0.5651    0.5502    0.0000 H   0  0  0  0  0  0  0  0  0  0  0  0
   -2.5697    0.3196    0.0000 H   0  0  0  0  0  0  0  0  0  0  0  0
   -2.7510   -0.3984    0.0000 H   0  0  0  0  0  0  0  0  0  0  0  0
   -2.4999   -1.2844    0.0000 H   0  0  0  0  0  0  0  0  0  0  0  0
   -1.9688   -1.8005    0.0000 H   0  0  0  0  0  0  0  0  0  0  0  0
   -0.1414   -0.9450    0.0000 H   0  0  0  0  0  0  0  0  0  0  0  0
   -0.6725   -0.4290    0.0000 H   0  0  0  0  0  0  0  0  0  0  0  0
   -1.4750   -2.2802    0.0000 H   0  0  0  0  0  0  0  0  0  0  0  0
   -0.9439   -2.7963    0.0000 H   0  0  0  0  0  0  0  0  0  0  0  0
   -0.0510   -3.0218    0.0000 H   0  0  0  0  0  0  0  0  0  0  0  0
    0.6614   -2.8199    0.0000 H   0  0  0  0  0  0  0  0  0  0  0  0
    1.3032   -2.1594    0.0000 H   0  0  0  0  0  0  0  0  0  0  0  0
    1.4845   -1.4414    0.0000 H   0  0  0  0  0  0  0  0  0  0  0  0
    0.0597   -0.1015    0.0000 H   0  0  0  0  0  0  0  0  0  0  0  0
    1.2540   -1.0281    0.0000 H   0  0  0  0  0  0  0  0  0  0  0  0
    1.8518   -0.2945    0.0000 H   0  0  0  0  0  0  0  0  0  0  0  0
    1.6979    0.2485    0.0000 H   0  0  0  0  0  0  0  0  0  0  0  0
   -0.0111    0.4325    0.0000 H   0  0  0  0  0  0  0  0  0  0  0  0
    0.3588   -0.1352    0.0000 H   0  0  0  0  0  0  0  0  0  0  0  0
    2.1867    0.9830    0.0000 H   0  0  0  0  0  0  0  0  0  0  0  0
    1.9412    1.7548    0.0000 H   0  0  0  0  0  0  0  0  0  0  0  0
  1  2  2  0  0  0  0
  3  2  1  0  0  0  0
  4  3  1  0  0  0  0
  5  4  1  0  0  0  0
  6  5  1  0  0  0  0
  7  6  1  0  0  0  0
  8  7  1  0  0  0  0
  9  8  1  0  0  0  0
 10  9  1  0  0  0  0
 11 10  1  0  0  0  0
 12 11  1  0  0  0  0
 13 12  1  0  0  0  0
 14 13  1  0  0  0  0
 15 14  1  0  0  0  0
 16 15  1  0  0  0  0
 17 16  1  0  0  0  0
  2 17  1  0  0  0  0
  3 18  1  0  0  0  0
  3 19  1  0  0  0  0
  4 20  1  0  0  0  0
  4 21  1  0  0  0  0
  5 22  1  0  0  0  0
  5 23  1  0  0  0  0
  6 24  1  0  0  0  0
  6 25  1  0  0  0  0
  7 26  1  0  0  0  0
  7 27  1  0  0  0  0
  8 28  1  0  0  0  0
  8 29  1  0  0  0  0
  9 30  1  0  0  0  0
  9 31  1  0  0  0  0
 10 32  1  0  0  0  0
 10 33  1  0  0  0  0
 11 34  1  0  0  0  0
 11 35  1  0  0  0  0
 12 36  1  0  0  0  0
 12 37  1  0  0  0  0
 13 38  1  0  0  0  0
 13 39  1  0  0  0  0
 14 40  1  0  0  0  0
 14 41  1  0  0  0  0
 15 42  1  0  0  0  0
 15 43  1  0  0  0  0
 16 44  1  0  0  0  0
 16 45  1  0  0  0  0
M  END
>  <id_input>
4734

>  <InChIKey>
FKUPPRZPSYCDRS-UHFFFAOYSA-N

>  <substance_name>
oxacyclohexadecan-2-one

>  <casrn>
106-02-5

>  <Molecular weight>
240.38162231445312

>  <guideline>
OECD Guideline 404 (Acute Dermal Irritation / Corrosion)

>  <species>
rabbit

>  <type_of_coverage>
semiocclusive

>  <max_duration(hrs)>
4.0

>  <vehicle>
other: Ethanol 96% and diethyl phthalate (DEP) (1 : 1 (w/w))

>  <edema/ erythema score>
1.58

>  <max_score>
4.0

>  <reversibility>
0.0

>  <Outcome>
1

>  <StandardizerResult>
Remove Explicit Hydrogens (ID: RemoveExplicitH)
Clear Stereo (ID: ClearStereo)
Wedge Clean (ID: WedgeClean)
Mesomerize (ID: Mesomerize)
Tautomerize (ID: Tautomerize)
Add Explicit Hydrogens (ID: AddExplicitH)
Neutralize (ID: Neutralize)
Clean 2D (ID: Clean2D)


$$$$

  Mrv1812 02121911042D          

 28 27  0  0  0  0            999 V2000
    3.8330   -1.5772    0.0000 C   0  0  0  0  0  0  0  0  0  0  0  0
    3.4205   -0.8627    0.0000 O   0  0  0  0  0  0  0  0  0  0  0  0
    2.5955   -0.8627    0.0000 Si  0  0  0  0  0  4  0  0  0  0  0  0
    1.7705   -0.8627    0.0000 C   0  0  0  0  0  0  0  0  0  0  0  0
    1.3580   -0.1482    0.0000 C   0  0  0  0  0  0  0  0  0  0  0  0
    0.5330   -0.1482    0.0000 C   0  0  0  0  0  0  0  0  0  0  0  0
    0.1205    0.5662    0.0000 N   0  0  0  0  0  0  0  0  0  0  0  0
   -0.7045    0.5662    0.0000 C   0  0  0  0  0  0  0  0  0  0  0  0
   -1.5295    0.5662    0.0000 O   0  0  0  0  0  0  0  0  0  0  0  0
    2.5955   -0.0377    0.0000 O   0  0  0  0  0  0  0  0  0  0  0  0
    1.8810    0.3748    0.0000 C   0  0  0  0  0  0  0  0  0  0  0  0
    2.5955   -1.6877    0.0000 O   0  0  0  0  0  0  0  0  0  0  0  0
    1.8810   -2.1002    0.0000 C   0  0  0  0  0  0  0  0  0  0  0  0
    3.1185   -1.9897    0.0000 H   0  0  0  0  0  0  0  0  0  0  0  0
    4.2455   -2.2916    0.0000 H   0  0  0  0  0  0  0  0  0  0  0  0
    4.5475   -1.1647    0.0000 H   0  0  0  0  0  0  0  0  0  0  0  0
    1.0812   -1.3160    0.0000 H   0  0  0  0  0  0  0  0  0  0  0  0
    1.7225   -1.6863    0.0000 H   0  0  0  0  0  0  0  0  0  0  0  0
    1.0423    0.6140    0.0000 H   0  0  0  0  0  0  0  0  0  0  0  0
    2.1759   -0.2559    0.0000 H   0  0  0  0  0  0  0  0  0  0  0  0
   -0.1563   -0.6016    0.0000 H   0  0  0  0  0  0  0  0  0  0  0  0
    0.4850   -0.9718    0.0000 H   0  0  0  0  0  0  0  0  0  0  0  0
    2.6633    0.6369    0.0000 H   0  0  0  0  0  0  0  0  0  0  0  0
    2.2028    1.1345    0.0000 H   0  0  0  0  0  0  0  0  0  0  0  0
    1.5250    1.1190    0.0000 H   0  0  0  0  0  0  0  0  0  0  0  0
    1.0561   -2.1105    0.0000 H   0  0  0  0  0  0  0  0  0  0  0  0
    1.6053   -2.8778    0.0000 H   0  0  0  0  0  0  0  0  0  0  0  0
    2.5152   -2.6279    0.0000 H   0  0  0  0  0  0  0  0  0  0  0  0
  1  2  1  0  0  0  0
  2  3  1  0  0  0  0
  3  4  1  0  0  0  0
  4  5  1  0  0  0  0
  5  6  1  0  0  0  0
  7  6  1  4  0  0  0
  7  8  2  0  0  0  0
  8  9  2  0  0  0  0
  3 10  1  0  0  0  0
 10 11  1  0  0  0  0
  3 12  1  0  0  0  0
 12 13  1  0  0  0  0
  1 14  1  0  0  0  0
  1 15  1  0  0  0  0
  1 16  1  0  0  0  0
  4 17  1  0  0  0  0
  4 18  1  0  0  0  0
  5 19  1  0  0  0  0
  5 20  1  0  0  0  0
  6 21  1  0  0  0  0
  6 22  1  0  0  0  0
 11 23  1  0  0  0  0
 11 24  1  0  0  0  0
 11 25  1  0  0  0  0
 13 26  1  0  0  0  0
 13 27  1  0  0  0  0
 13 28  1  0  0  0  0
M  END
>  <id_input>
93

>  <InChIKey>
FMGBDYLOANULLW-UHFFFAOYSA-N

>  <substance_name>
(3-isocyanatopropyl)trimethoxysilane

>  <casrn>
15396-00-6

>  <Molecular weight>
205.28379821777344

>  <guideline>
OECD Guideline 404 (Acute Dermal Irritation / Corrosion)

>  <species>
rabbit

>  <type_of_coverage>
occlusive

>  <max_duration(hrs)>
4.0

>  <vehicle>
unchanged (no vehicle)

>  <edema/ erythema score>
2.87888888888888

>  <max_score>
4.0

>  <reversibility>
0.0

>  <Outcome>
1

>  <StandardizerResult>
Remove Explicit Hydrogens (ID: RemoveExplicitH)
Clear Stereo (ID: ClearStereo)
Wedge Clean (ID: WedgeClean)
Mesomerize (ID: Mesomerize)
Tautomerize (ID: Tautomerize)
Add Explicit Hydrogens (ID: AddExplicitH)
Neutralize (ID: Neutralize)
Clean 2D (ID: Clean2D)


$$$$

  Mrv1812 02121911042D          

 51 51  0  0  0  0            999 V2000
    5.1524   -2.7340    0.0000 C   0  0  0  0  0  0  0  0  0  0  0  0
    4.4379   -3.1465    0.0000 C   0  0  0  0  0  0  0  0  0  0  0  0
    4.4379   -3.9715    0.0000 C   0  0  0  0  0  0  0  0  0  0  0  0
    5.1524   -4.3840    0.0000 C   0  0  0  0  0  0  0  0  0  0  0  0
    5.1524   -5.2090    0.0000 O   0  0  0  0  0  0  0  0  0  0  0  0
    3.7234   -2.7340    0.0000 C   0  0  0  0  0  0  0  0  0  0  0  0
    3.7234   -1.9090    0.0000 C   0  0  0  0  0  0  0  0  0  0  0  0
    3.0089   -1.4965    0.0000 C   0  0  0  0  0  0  0  0  0  0  0  0
    3.0089   -0.6715    0.0000 C   0  0  0  0  0  0  0  0  0  0  0  0
    3.7234   -0.2590    0.0000 C   0  0  0  0  0  0  0  0  0  0  0  0
    2.2945   -0.2590    0.0000 C   0  0  0  0  0  0  0  0  0  0  0  0
    2.2945    0.5660    0.0000 C   0  0  0  0  0  0  0  0  0  0  0  0
    1.5800    0.9785    0.0000 C   0  0  0  0  0  0  0  0  0  0  0  0
    1.5800    1.8035    0.0000 C   0  0  0  0  0  0  0  0  0  0  0  0
    2.2945    2.2160    0.0000 C   0  0  0  0  0  0  0  0  0  0  0  0
    0.8655    2.2160    0.0000 C   0  0  0  0  0  0  0  0  0  0  0  0
    0.1511    1.8035    0.0000 C   0  0  0  0  0  0  0  0  0  0  0  0
    0.1511    0.9785    0.0000 C   0  0  0  0  0  0  0  0  0  0  0  0
    0.8655    0.5660    0.0000 C   0  0  0  0  0  0  0  0  0  0  0  0
    0.3352   -0.0660    0.0000 C   0  0  0  0  0  0  0  0  0  0  0  0
    1.3958   -0.0660    0.0000 C   0  0  0  0  0  0  0  0  0  0  0  0
    5.5649   -3.4485    0.0000 H   0  0  0  0  0  0  0  0  0  0  0  0
    5.8668   -2.3215    0.0000 H   0  0  0  0  0  0  0  0  0  0  0  0
    4.7399   -2.0195    0.0000 H   0  0  0  0  0  0  0  0  0  0  0  0
    3.7234   -4.3840    0.0000 H   0  0  0  0  0  0  0  0  0  0  0  0
    5.9760   -4.3360    0.0000 H   0  0  0  0  0  0  0  0  0  0  0  0
    5.6057   -3.6947    0.0000 H   0  0  0  0  0  0  0  0  0  0  0  0
    4.4379   -5.6215    0.0000 H   0  0  0  0  0  0  0  0  0  0  0  0
    3.0089   -3.1465    0.0000 H   0  0  0  0  0  0  0  0  0  0  0  0
    4.4379   -1.4965    0.0000 H   0  0  0  0  0  0  0  0  0  0  0  0
    2.2945   -1.9090    0.0000 H   0  0  0  0  0  0  0  0  0  0  0  0
    4.1359   -0.9735    0.0000 H   0  0  0  0  0  0  0  0  0  0  0  0
    4.4379    0.1535    0.0000 H   0  0  0  0  0  0  0  0  0  0  0  0
    3.3109    0.4555    0.0000 H   0  0  0  0  0  0  0  0  0  0  0  0
    1.9980   -1.0289    0.0000 H   0  0  0  0  0  0  0  0  0  0  0  0
    3.0089    0.9785    0.0000 H   0  0  0  0  0  0  0  0  0  0  0  0
    2.7070    1.5015    0.0000 H   0  0  0  0  0  0  0  0  0  0  0  0
    3.0089    2.6285    0.0000 H   0  0  0  0  0  0  0  0  0  0  0  0
    1.8820    2.9305    0.0000 H   0  0  0  0  0  0  0  0  0  0  0  0
    1.2358    2.9533    0.0000 H   0  0  0  0  0  0  0  0  0  0  0  0
    0.4953    2.9533    0.0000 H   0  0  0  0  0  0  0  0  0  0  0  0
   -0.3023    2.4928    0.0000 H   0  0  0  0  0  0  0  0  0  0  0  0
   -0.6725    1.8515    0.0000 H   0  0  0  0  0  0  0  0  0  0  0  0
   -0.6725    0.9306    0.0000 H   0  0  0  0  0  0  0  0  0  0  0  0
   -0.3023    0.2892    0.0000 H   0  0  0  0  0  0  0  0  0  0  0  0
   -0.3351   -0.5469    0.0000 H   0  0  0  0  0  0  0  0  0  0  0  0
    0.4847   -0.8773    0.0000 H   0  0  0  0  0  0  0  0  0  0  0  0
    1.1329   -0.2765    0.0000 H   0  0  0  0  0  0  0  0  0  0  0  0
    1.2774   -0.8824    0.0000 H   0  0  0  0  0  0  0  0  0  0  0  0
    1.8668   -0.7433    0.0000 H   0  0  0  0  0  0  0  0  0  0  0  0
    1.8215    0.6407    0.0000 H   0  0  0  0  0  0  0  0  0  0  0  0
  1  2  1  0  0  0  0
  2  3  2  0  0  0  0
  3  4  1  4  0  0  0
  4  5  1  0  0  0  0
  6  2  1  4  0  0  0
  6  7  2  0  0  0  0
  8  7  1  4  0  0  0
  8  9  2  0  0  0  0
  9 10  1  0  0  0  0
 11  9  1  4  0  0  0
 11 12  2  0  0  0  0
 12 13  1  0  0  0  0
 14 13  2  0  0  0  0
 14 15  1  0  0  0  0
 16 14  1  0  0  0  0
 17 16  1  0  0  0  0
 18 17  1  0  0  0  0
 19 18  1  0  0  0  0
 19 20  1  0  0  0  0
 19 21  1  0  0  0  0
 13 19  1  0  0  0  0
  1 22  1  0  0  0  0
  1 23  1  0  0  0  0
  1 24  1  0  0  0  0
  3 25  1  0  0  0  0
  4 26  1  0  0  0  0
  4 27  1  0  0  0  0
  5 28  1  0  0  0  0
  6 29  1  0  0  0  0
  7 30  1  0  0  0  0
  8 31  1  0  0  0  0
 10 32  1  0  0  0  0
 10 33  1  0  0  0  0
 10 34  1  0  0  0  0
 11 35  1  0  0  0  0
 12 36  1  0  0  0  0
 15 37  1  0  0  0  0
 15 38  1  0  0  0  0
 15 39  1  0  0  0  0
 16 40  1  0  0  0  0
 16 41  1  0  0  0  0
 17 42  1  0  0  0  0
 17 43  1  0  0  0  0
 18 44  1  0  0  0  0
 18 45  1  0  0  0  0
 20 46  1  0  0  0  0
 20 47  1  0  0  0  0
 20 48  1  0  0  0  0
 21 49  1  0  0  0  0
 21 50  1  0  0  0  0
 21 51  1  0  0  0  0
M  END
>  <id_input>
4856

>  <InChIKey>
FPIPGXGPPPQFEQ-UHFFFAOYSA-N

>  <substance_name>
retinol

>  <casrn>
68-26-8

>  <Molecular weight>
286.45159912109375

>  <guideline>
OECD Guideline 404 (Acute Dermal Irritation / Corrosion)

>  <species>
rabbit

>  <type_of_coverage>
semiocclusive

>  <max_duration(hrs)>
4.0

>  <vehicle>
unchanged (no vehicle)

>  <edema/ erythema score>
2.1

>  <max_score>
4.0

>  <reversibility>
0.0

>  <Outcome>
1

>  <StandardizerResult>
Remove Explicit Hydrogens (ID: RemoveExplicitH)
Clear Stereo (ID: ClearStereo)
Wedge Clean (ID: WedgeClean)
Mesomerize (ID: Mesomerize)
Tautomerize (ID: Tautomerize)
Add Explicit Hydrogens (ID: AddExplicitH)
Neutralize (ID: Neutralize)
Clean 2D (ID: Clean2D)


$$$$

  Mrv1812 02121911042D          

 18 19  0  0  0  0            999 V2000
   -0.7145   -2.3645    0.0000 O   0  0  0  0  0  0  0  0  0  0  0  0
   -0.7145   -1.5395    0.0000 C   0  0  0  0  0  0  0  0  0  0  0  0
   -1.4289   -1.1270    0.0000 C   0  0  0  0  0  0  0  0  0  0  0  0
   -1.4289   -0.3020    0.0000 C   0  0  0  0  0  0  0  0  0  0  0  0
   -0.7145    0.1105    0.0000 C   0  0  0  0  0  0  0  0  0  0  0  0
   -0.7145    0.9355    0.0000 O   0  0  0  0  0  0  0  0  0  0  0  0
    0.0000   -0.3020    0.0000 C   0  0  0  0  0  0  0  0  0  0  0  0
    0.7145    0.1105    0.0000 C   0  0  0  0  0  0  0  0  0  0  0  0
    1.4289   -0.3020    0.0000 C   0  0  0  0  0  0  0  0  0  0  0  0
    1.4289   -1.1270    0.0000 C   0  0  0  0  0  0  0  0  0  0  0  0
    0.7145   -1.5395    0.0000 C   0  0  0  0  0  0  0  0  0  0  0  0
    0.0000   -1.1270    0.0000 C   0  0  0  0  0  0  0  0  0  0  0  0
   -2.1434   -1.5395    0.0000 H   0  0  0  0  0  0  0  0  0  0  0  0
   -2.1434    0.1105    0.0000 H   0  0  0  0  0  0  0  0  0  0  0  0
    0.7145    0.9355    0.0000 H   0  0  0  0  0  0  0  0  0  0  0  0
    2.1434    0.1105    0.0000 H   0  0  0  0  0  0  0  0  0  0  0  0
    2.1434   -1.5395    0.0000 H   0  0  0  0  0  0  0  0  0  0  0  0
    0.7145   -2.3645    0.0000 H   0  0  0  0  0  0  0  0  0  0  0  0
  1  2  2  0  0  0  0
  3  2  1  0  0  0  0
  4  3  2  0  0  0  0
  5  4  1  0  0  0  0
  5  6  2  0  0  0  0
  7  5  1  0  0  0  0
  7  8  4  0  0  0  0
  8  9  4  0  0  0  0
  9 10  4  0  0  0  0
 10 11  4  0  0  0  0
 11 12  4  0  0  0  0
  2 12  1  0  0  0  0
 12  7  4  0  0  0  0
  3 13  1  0  0  0  0
  4 14  1  0  0  0  0
  8 15  1  0  0  0  0
  9 16  1  0  0  0  0
 10 17  1  0  0  0  0
 11 18  1  0  0  0  0
M  END
>  <id_input>
1811

>  <InChIKey>
FRASJONUBLZVQX-UHFFFAOYSA-N

>  <substance_name>
1,4-dihydronaphthalene-1,4-dione

>  <casrn>
130-15-4

>  <Molecular weight>
158.1534423828125

>  <guideline>
OECD Guideline 404 (Acute Dermal Irritation / Corrosion)

>  <species>
rabbit

>  <type_of_coverage>
semiocclusive

>  <max_duration(hrs)>
4.0

>  <vehicle>
unchanged (no vehicle)

>  <edema/ erythema score>
4.0

>  <max_score>
4.0

>  <reversibility>
0.0

>  <Outcome>
1

>  <StandardizerResult>
Remove Explicit Hydrogens (ID: RemoveExplicitH)
Dearomatize (ID: Dearomatize)
Clear Stereo (ID: ClearStereo)
Wedge Clean (ID: WedgeClean)
Mesomerize (ID: Mesomerize)
Tautomerize (ID: Tautomerize)
Aromatize (ID: Aromatize)
Add Explicit Hydrogens (ID: AddExplicitH)
Neutralize (ID: Neutralize)
Clean 2D (ID: Clean2D)


$$$$

  Mrv1812 02121911042D          

 38 40  0  0  0  0            999 V2000
   -0.2581    2.2493    0.0000 C   0  0  0  0  0  0  0  0  0  0  0  0
   -0.9726    2.6618    0.0000 C   0  0  0  0  0  0  0  0  0  0  0  0
   -1.6871    2.2493    0.0000 C   0  0  0  0  0  0  0  0  0  0  0  0
   -1.6871    1.4243    0.0000 C   0  0  0  0  0  0  0  0  0  0  0  0
   -0.9726    1.0118    0.0000 C   0  0  0  0  0  0  0  0  0  0  0  0
   -0.2581    1.4243    0.0000 C   0  0  0  0  0  0  0  0  0  0  0  0
   -2.4015    1.0118    0.0000 O   0  0  0  0  0  0  0  0  0  0  0  0
   -3.1160    1.4243    0.0000 C   0  0  0  0  0  0  0  0  0  0  0  0
   -3.1160    2.2493    0.0000 O   0  0  0  0  0  0  0  0  0  0  0  0
   -3.8305    1.0118    0.0000 N   0  0  0  0  0  0  0  0  0  0  0  0
   -4.5449    1.4243    0.0000 C   0  0  0  0  0  0  0  0  0  0  0  0
   -4.5449    2.2493    0.0000 C   0  0  0  0  0  0  0  0  0  0  0  0
   -5.2594    2.6618    0.0000 C   0  0  0  0  0  0  0  0  0  0  0  0
   -5.9739    2.2493    0.0000 C   0  0  0  0  0  0  0  0  0  0  0  0
   -5.9739    1.4243    0.0000 C   0  0  0  0  0  0  0  0  0  0  0  0
   -5.2594    1.0118    0.0000 C   0  0  0  0  0  0  0  0  0  0  0  0
   -5.2594    0.1868    0.0000 S   0  0  0  0  0  0  0  0  0  0  0  0
   -4.5449   -0.2257    0.0000 C   0  0  0  0  0  0  0  0  0  0  0  0
   -4.5449   -1.0507    0.0000 C   0  0  0  0  0  0  0  0  0  0  0  0
   -3.8305   -1.4632    0.0000 C   0  0  0  0  0  0  0  0  0  0  0  0
   -3.1160   -1.0507    0.0000 C   0  0  0  0  0  0  0  0  0  0  0  0
   -3.1160   -0.2257    0.0000 C   0  0  0  0  0  0  0  0  0  0  0  0
   -3.8305    0.1868    0.0000 C   0  0  0  0  0  0  0  0  0  0  0  0
    0.4564    2.6618    0.0000 H   0  0  0  0  0  0  0  0  0  0  0  0
   -0.9726    3.4868    0.0000 H   0  0  0  0  0  0  0  0  0  0  0  0
   -2.4015    2.6618    0.0000 H   0  0  0  0  0  0  0  0  0  0  0  0
   -0.9726    0.1868    0.0000 H   0  0  0  0  0  0  0  0  0  0  0  0
    0.4564    1.0118    0.0000 H   0  0  0  0  0  0  0  0  0  0  0  0
   -3.1160    0.5993    0.0000 H   0  0  0  0  0  0  0  0  0  0  0  0
   -3.8305    2.6618    0.0000 H   0  0  0  0  0  0  0  0  0  0  0  0
   -5.2594    3.4868    0.0000 H   0  0  0  0  0  0  0  0  0  0  0  0
   -6.6884    2.6618    0.0000 H   0  0  0  0  0  0  0  0  0  0  0  0
   -6.6884    1.0118    0.0000 H   0  0  0  0  0  0  0  0  0  0  0  0
   -5.2594   -1.4632    0.0000 H   0  0  0  0  0  0  0  0  0  0  0  0
   -3.8305   -2.2882    0.0000 H   0  0  0  0  0  0  0  0  0  0  0  0
   -2.4015   -1.4632    0.0000 H   0  0  0  0  0  0  0  0  0  0  0  0
   -2.2910   -0.2257    0.0000 H   0  0  0  0  0  0  0  0  0  0  0  0
   -3.8305   -0.6382    0.0000 H   0  0  0  0  0  0  0  0  0  0  0  0
  2  1  4  0  0  0  0
  3  2  4  0  0  0  0
  4  3  4  0  0  0  0
  5  4  4  0  0  0  0
  6  5  4  0  0  0  0
  4  7  1  0  0  0  0
  7  8  1  0  0  0  0
  8  9  2  0  0  0  0
  8 10  1  0  0  0  0
 10 11  1  0  0  0  0
 12 11  4  0  0  0  0
 13 12  4  0  0  0  0
 14 13  4  0  0  0  0
 15 14  4  0  0  0  0
 16 15  4  0  0  0  0
 16 17  1  0  0  0  0
 17 18  1  0  0  0  0
 19 18  4  0  0  0  0
 20 19  4  0  0  0  0
 21 20  4  0  0  0  0
 22 21  4  0  0  0  0
 23 22  4  0  0  0  0
  1  6  4  0  0  0  0
 11 16  4  0  0  0  0
 18 23  4  0  0  0  0
  1 24  1  0  0  0  0
  2 25  1  0  0  0  0
  3 26  1  0  0  0  0
  5 27  1  0  0  0  0
  6 28  1  0  0  0  0
 10 29  1  0  0  0  0
 12 30  1  0  0  0  0
 13 31  1  0  0  0  0
 14 32  1  0  0  0  0
 15 33  1  0  0  0  0
 19 34  1  0  0  0  0
 20 35  1  0  0  0  0
 21 36  1  0  0  0  0
 22 37  1  0  0  0  0
 23 38  1  0  0  0  0
M  END
>  <id_input>
295

>  <InChIKey>
FWULFEHVLSQUBD-UHFFFAOYSA-N

>  <substance_name>
-

>  <casrn>
111974-73-3

>  <Molecular weight>
321.3929138183594

>  <species>
rabbit

>  <type_of_coverage>
semiocclusive

>  <max_duration(hrs)>
4.0

>  <vehicle>
other: Olive oil (small amount)

>  <edema/ erythema score>
1.66666666666666

>  <max_score>
4.0

>  <reversibility>
0.0

>  <Outcome>
1

>  <StandardizerResult>
Remove Explicit Hydrogens (ID: RemoveExplicitH)
Dearomatize (ID: Dearomatize)
Clear Stereo (ID: ClearStereo)
Wedge Clean (ID: WedgeClean)
Mesomerize (ID: Mesomerize)
Tautomerize (ID: Tautomerize)
Aromatize (ID: Aromatize)
Add Explicit Hydrogens (ID: AddExplicitH)
Neutralize (ID: Neutralize)
Clean 2D (ID: Clean2D)


$$$$

  Mrv1812 02121911042D          

 24 23  0  0  0  0            999 V2000
    0.5926   -0.3103    0.0000 C   0  0  0  0  0  0  0  0  0  0  0  0
    0.5926    0.5147    0.0000 C   0  0  0  0  0  0  0  0  0  0  0  0
   -0.1219    0.9272    0.0000 C   0  0  0  0  0  0  0  0  0  0  0  0
    1.3071    0.9272    0.0000 C   0  0  0  0  0  0  0  0  0  0  0  0
    1.3071    1.7522    0.0000 C   0  0  0  0  0  0  0  0  0  0  0  0
    1.3071    2.5772    0.0000 C   0  0  0  0  0  0  0  0  0  0  0  0
    2.1321    1.7522    0.0000 C   0  0  0  0  0  0  0  0  0  0  0  0
    0.4821    1.7522    0.0000 C   0  0  0  0  0  0  0  0  0  0  0  0
   -0.2324   -0.3103    0.0000 H   0  0  0  0  0  0  0  0  0  0  0  0
    0.5926   -1.1353    0.0000 H   0  0  0  0  0  0  0  0  0  0  0  0
    1.4176   -0.3103    0.0000 H   0  0  0  0  0  0  0  0  0  0  0  0
   -0.1219    1.7522    0.0000 H   0  0  0  0  0  0  0  0  0  0  0  0
   -0.8363    0.5147    0.0000 H   0  0  0  0  0  0  0  0  0  0  0  0
    1.7604    0.2379    0.0000 H   0  0  0  0  0  0  0  0  0  0  0  0
    2.1307    0.8792    0.0000 H   0  0  0  0  0  0  0  0  0  0  0  0
    2.1321    2.5772    0.0000 H   0  0  0  0  0  0  0  0  0  0  0  0
    1.3071    3.4022    0.0000 H   0  0  0  0  0  0  0  0  0  0  0  0
    0.4821    2.5772    0.0000 H   0  0  0  0  0  0  0  0  0  0  0  0
    2.7148    1.1681    0.0000 H   0  0  0  0  0  0  0  0  0  0  0  0
    2.9571    1.7515    0.0000 H   0  0  0  0  0  0  0  0  0  0  0  0
    2.7157    2.3353    0.0000 H   0  0  0  0  0  0  0  0  0  0  0  0
    0.1999    0.9769    0.0000 H   0  0  0  0  0  0  0  0  0  0  0  0
    0.7643    0.9769    0.0000 H   0  0  0  0  0  0  0  0  0  0  0  0
   -0.1013    2.3356    0.0000 H   0  0  0  0  0  0  0  0  0  0  0  0
  1  2  1  0  0  0  0
  2  3  2  0  0  0  0
  2  4  1  0  0  0  0
  4  5  1  0  0  0  0
  5  6  1  0  0  0  0
  5  7  1  0  0  0  0
  5  8  1  0  0  0  0
  1  9  1  0  0  0  0
  1 10  1  0  0  0  0
  1 11  1  0  0  0  0
  3 12  1  0  0  0  0
  3 13  1  0  0  0  0
  4 14  1  0  0  0  0
  4 15  1  0  0  0  0
  6 16  1  0  0  0  0
  6 17  1  0  0  0  0
  6 18  1  0  0  0  0
  7 19  1  0  0  0  0
  7 20  1  0  0  0  0
  7 21  1  0  0  0  0
  8 22  1  0  0  0  0
  8 23  1  0  0  0  0
  8 24  1  0  0  0  0
M  END
>  <id_input>
2108

>  <InChIKey>
FXNDIJDIPNCZQJ-UHFFFAOYSA-N

>  <substance_name>
2,4,4-trimethylpent-1-ene

>  <casrn>
25167-70-8

>  <Molecular weight>
112.212646484375

>  <guideline>
OECD Guideline 404 (Acute Dermal Irritation / Corrosion)

>  <species>
rabbit

>  <type_of_coverage>
semiocclusive

>  <max_duration(hrs)>
4.0

>  <vehicle>
unchanged (no vehicle)

>  <edema/ erythema score>
1.6

>  <max_score>
2.0

>  <reversibility>
0.0

>  <Outcome>
1

>  <StandardizerResult>
Remove Explicit Hydrogens (ID: RemoveExplicitH)
Clear Stereo (ID: ClearStereo)
Wedge Clean (ID: WedgeClean)
Mesomerize (ID: Mesomerize)
Tautomerize (ID: Tautomerize)
Add Explicit Hydrogens (ID: AddExplicitH)
Neutralize (ID: Neutralize)
Clean 2D (ID: Clean2D)


$$$$

  Mrv1812 02121911042D          

 33 34  0  0  0  0            999 V2000
    0.7267    0.6674    0.0000 C   0  0  0  0  0  0  0  0  0  0  0  0
    0.4718    1.4520    0.0000 C   0  0  0  0  0  0  0  0  0  0  0  0
    0.2169    2.2367    0.0000 C   0  0  0  0  0  0  0  0  0  0  0  0
   -0.3128    1.1971    0.0000 C   0  0  0  0  0  0  0  0  0  0  0  0
   -0.9803    1.6820    0.0000 C   0  0  0  0  0  0  0  0  0  0  0  0
   -1.6477    1.1971    0.0000 C   0  0  0  0  0  0  0  0  0  0  0  0
   -1.3928    0.4125    0.0000 C   0  0  0  0  0  0  0  0  0  0  0  0
   -0.5678    0.4125    0.0000 O   0  0  0  0  0  0  0  0  0  0  0  0
    1.2564    1.7070    0.0000 C   0  0  0  0  0  0  0  0  0  0  0  0
    1.9239    1.2221    0.0000 C   0  0  0  0  0  0  0  0  0  0  0  0
    2.5913    1.7070    0.0000 C   0  0  0  0  0  0  0  0  0  0  0  0
    2.3364    2.4916    0.0000 C   0  0  0  0  0  0  0  0  0  0  0  0
    1.5114    2.4916    0.0000 O   0  0  0  0  0  0  0  0  0  0  0  0
   -0.0579    0.4125    0.0000 H   0  0  0  0  0  0  0  0  0  0  0  0
    0.9817   -0.1172    0.0000 H   0  0  0  0  0  0  0  0  0  0  0  0
    1.5114    0.9224    0.0000 H   0  0  0  0  0  0  0  0  0  0  0  0
    1.0015    2.4916    0.0000 H   0  0  0  0  0  0  0  0  0  0  0  0
   -0.0381    3.0213    0.0000 H   0  0  0  0  0  0  0  0  0  0  0  0
   -0.5678    1.9817    0.0000 H   0  0  0  0  0  0  0  0  0  0  0  0
   -1.0974    0.9422    0.0000 H   0  0  0  0  0  0  0  0  0  0  0  0
   -1.2077    2.4751    0.0000 H   0  0  0  0  0  0  0  0  0  0  0  0
   -1.6642    2.1434    0.0000 H   0  0  0  0  0  0  0  0  0  0  0  0
   -2.4535    1.3741    0.0000 H   0  0  0  0  0  0  0  0  0  0  0  0
   -2.3520    0.7674    0.0000 H   0  0  0  0  0  0  0  0  0  0  0  0
   -2.1343    0.0508    0.0000 H   0  0  0  0  0  0  0  0  0  0  0  0
   -1.5076   -0.4045    0.0000 H   0  0  0  0  0  0  0  0  0  0  0  0
    2.0410    1.9619    0.0000 H   0  0  0  0  0  0  0  0  0  0  0  0
    2.1513    0.4290    0.0000 H   0  0  0  0  0  0  0  0  0  0  0  0
    2.6078    0.7607    0.0000 H   0  0  0  0  0  0  0  0  0  0  0  0
    3.3971    1.5300    0.0000 H   0  0  0  0  0  0  0  0  0  0  0  0
    3.2956    2.1367    0.0000 H   0  0  0  0  0  0  0  0  0  0  0  0
    3.0779    2.8533    0.0000 H   0  0  0  0  0  0  0  0  0  0  0  0
    2.4512    3.3086    0.0000 H   0  0  0  0  0  0  0  0  0  0  0  0
  1  2  1  0  0  0  0
  2  3  1  0  0  0  0
  2  4  1  0  0  0  0
  5  4  1  0  0  0  0
  6  5  1  0  0  0  0
  7  6  1  0  0  0  0
  8  7  1  0  0  0  0
  2  9  1  0  0  0  0
 10  9  1  0  0  0  0
 11 10  1  0  0  0  0
 12 11  1  0  0  0  0
 13 12  1  0  0  0  0
  4  8  1  0  0  0  0
  9 13  1  0  0  0  0
  1 14  1  0  0  0  0
  1 15  1  0  0  0  0
  1 16  1  0  0  0  0
  3 17  1  0  0  0  0
  3 18  1  0  0  0  0
  3 19  1  0  0  0  0
  4 20  1  0  0  0  0
  5 21  1  0  0  0  0
  5 22  1  0  0  0  0
  6 23  1  0  0  0  0
  6 24  1  0  0  0  0
  7 25  1  0  0  0  0
  7 26  1  0  0  0  0
  9 27  1  0  0  0  0
 10 28  1  0  0  0  0
 10 29  1  0  0  0  0
 11 30  1  0  0  0  0
 11 31  1  0  0  0  0
 12 32  1  0  0  0  0
 12 33  1  0  0  0  0
M  END
>  <id_input>
2359

>  <InChIKey>
FZLHAQMQWDDWFI-UHFFFAOYSA-N

>  <substance_name>
2-[2-(oxolan-2-yl)propan-2-yl]oxolane

>  <casrn>
89686-69-1

>  <Molecular weight>
184.27529907226562

>  <guideline>
OECD Guideline 404 (Acute Dermal Irritation / Corrosion)

>  <species>
rabbit

>  <type_of_coverage>
semiocclusive

>  <max_duration(hrs)>
4.0

>  <vehicle>
unchanged (no vehicle)

>  <edema/ erythema score>
1.9

>  <max_score>
4.0

>  <reversibility>
0.0

>  <Outcome>
1

>  <StandardizerResult>
Remove Explicit Hydrogens (ID: RemoveExplicitH)
Clear Stereo (ID: ClearStereo)
Wedge Clean (ID: WedgeClean)
Mesomerize (ID: Mesomerize)
Tautomerize (ID: Tautomerize)
Add Explicit Hydrogens (ID: AddExplicitH)
Neutralize (ID: Neutralize)
Clean 2D (ID: Clean2D)


$$$$

  Mrv1812 02121911042D          

 34 33  0  0  0  0            999 V2000
   -1.0324   -1.6160    0.0000 C   0  0  0  0  0  0  0  0  0  0  0  0
   -0.3179   -2.0285    0.0000 O   0  0  0  0  0  0  0  0  0  0  0  0
    0.3966   -1.6160    0.0000 Si  0  0  0  0  0  4  0  0  0  0  0  0
    0.8091   -2.3304    0.0000 C   0  0  0  0  0  0  0  0  0  0  0  0
   -0.0159   -0.9015    0.0000 C   0  0  0  0  0  0  0  0  0  0  0  0
    1.1110   -1.2035    0.0000 C   0  0  0  0  0  0  0  0  0  0  0  0
    1.8255   -1.6160    0.0000 C   0  0  0  0  0  0  0  0  0  0  0  0
    2.5400   -1.2035    0.0000 C   0  0  0  0  0  0  0  0  0  0  0  0
    3.2545   -1.6160    0.0000 N   0  0  0  0  0  0  0  0  0  0  0  0
    3.9689   -1.2035    0.0000 C   0  0  0  0  0  0  0  0  0  0  0  0
    4.6834   -1.6160    0.0000 C   0  0  0  0  0  0  0  0  0  0  0  0
    5.3979   -1.2035    0.0000 N   0  0  0  0  0  0  0  0  0  0  0  0
   -0.6199   -0.9015    0.0000 H   0  0  0  0  0  0  0  0  0  0  0  0
   -1.7468   -1.2035    0.0000 H   0  0  0  0  0  0  0  0  0  0  0  0
   -1.4449   -2.3304    0.0000 H   0  0  0  0  0  0  0  0  0  0  0  0
    0.0946   -2.7429    0.0000 H   0  0  0  0  0  0  0  0  0  0  0  0
    1.2216   -3.0449    0.0000 H   0  0  0  0  0  0  0  0  0  0  0  0
    1.5235   -1.9179    0.0000 H   0  0  0  0  0  0  0  0  0  0  0  0
    0.8091   -0.9015    0.0000 H   0  0  0  0  0  0  0  0  0  0  0  0
    0.3966   -0.1870    0.0000 H   0  0  0  0  0  0  0  0  0  0  0  0
   -0.4284   -0.1870    0.0000 H   0  0  0  0  0  0  0  0  0  0  0  0
    1.8588   -0.8548    0.0000 H   0  0  0  0  0  0  0  0  0  0  0  0
    1.2543   -0.3910    0.0000 H   0  0  0  0  0  0  0  0  0  0  0  0
    1.9688   -2.4284    0.0000 H   0  0  0  0  0  0  0  0  0  0  0  0
    2.5732   -1.9646    0.0000 H   0  0  0  0  0  0  0  0  0  0  0  0
    3.1614   -0.6609    0.0000 H   0  0  0  0  0  0  0  0  0  0  0  0
    2.6581   -0.3870    0.0000 H   0  0  0  0  0  0  0  0  0  0  0  0
    3.6488   -2.3406    0.0000 H   0  0  0  0  0  0  0  0  0  0  0  0
    4.3392   -0.4662    0.0000 H   0  0  0  0  0  0  0  0  0  0  0  0
    3.5987   -0.4662    0.0000 H   0  0  0  0  0  0  0  0  0  0  0  0
    4.3131   -2.3532    0.0000 H   0  0  0  0  0  0  0  0  0  0  0  0
    5.0537   -2.3532    0.0000 H   0  0  0  0  0  0  0  0  0  0  0  0
    6.1123   -1.6160    0.0000 H   0  0  0  0  0  0  0  0  0  0  0  0
    5.3979   -0.3785    0.0000 H   0  0  0  0  0  0  0  0  0  0  0  0
  1  2  1  0  0  0  0
  2  3  1  0  0  0  0
  3  4  1  0  0  0  0
  3  5  1  0  0  0  0
  3  6  1  0  0  0  0
  6  7  1  0  0  0  0
  7  8  1  0  0  0  0
  8  9  1  0  0  0  0
  9 10  1  0  0  0  0
 10 11  1  0  0  0  0
 11 12  1  0  0  0  0
  1 13  1  0  0  0  0
  1 14  1  0  0  0  0
  1 15  1  0  0  0  0
  4 16  1  0  0  0  0
  4 17  1  0  0  0  0
  4 18  1  0  0  0  0
  5 19  1  0  0  0  0
  5 20  1  0  0  0  0
  5 21  1  0  0  0  0
  6 22  1  0  0  0  0
  6 23  1  0  0  0  0
  7 24  1  0  0  0  0
  7 25  1  0  0  0  0
  8 26  1  0  0  0  0
  8 27  1  0  0  0  0
  9 28  1  0  0  0  0
 10 29  1  0  0  0  0
 10 30  1  0  0  0  0
 11 31  1  0  0  0  0
 11 32  1  0  0  0  0
 12 33  1  0  0  0  0
 12 34  1  0  0  0  0
M  END
>  <id_input>
3499

>  <InChIKey>
GDYNEEHLNBYCLY-UHFFFAOYSA-N

>  <substance_name>
N-{3-[methoxy(dimethyl)silyl]propyl}ethane-1,2-diamine

>  <casrn>
3069-33-8

>  <Molecular weight>
190.35858154296875

>  <guideline>
OECD Guideline 404 (Acute Dermal Irritation / Corrosion)

>  <species>
rabbit

>  <type_of_coverage>
semiocclusive

>  <max_duration(hrs)>
4.0

>  <vehicle>
unchanged (no vehicle)

>  <edema/ erythema score>
3.0

>  <max_score>
4.0

>  <reversibility>
1.0

>  <Outcome>
1

>  <StandardizerResult>
Remove Explicit Hydrogens (ID: RemoveExplicitH)
Clear Stereo (ID: ClearStereo)
Wedge Clean (ID: WedgeClean)
Mesomerize (ID: Mesomerize)
Tautomerize (ID: Tautomerize)
Add Explicit Hydrogens (ID: AddExplicitH)
Neutralize (ID: Neutralize)
Clean 2D (ID: Clean2D)


$$$$

  Mrv1812 02121911042D          

 23 22  0  0  0  0            999 V2000
   -0.7146    0.0897    0.0000 Cl  0  0  0  0  0  0  0  0  0  0  0  0
   -0.0001    0.5022    0.0000 C   0  0  0  0  0  0  0  0  0  0  0  0
    0.7144    0.0897    0.0000 C   0  0  0  0  0  0  0  0  0  0  0  0
    1.4288    0.5022    0.0000 C   0  0  0  0  0  0  0  0  0  0  0  0
    2.1433    0.0897    0.0000 C   0  0  0  0  0  0  0  0  0  0  0  0
    2.8578    0.5022    0.0000 O   0  0  0  0  0  0  0  0  0  0  0  0
    3.5723    0.0897    0.0000 C   0  0  0  0  0  0  0  0  0  0  0  0
    3.5723   -0.7353    0.0000 O   0  0  0  0  0  0  0  0  0  0  0  0
    4.2867    0.5022    0.0000 C   0  0  0  0  0  0  0  0  0  0  0  0
    5.0012    0.0897    0.0000 C   0  0  0  0  0  0  0  0  0  0  0  0
    5.7157    0.5022    0.0000 Cl  0  0  0  0  0  0  0  0  0  0  0  0
    0.3702    1.2394    0.0000 H   0  0  0  0  0  0  0  0  0  0  0  0
   -0.3704    1.2394    0.0000 H   0  0  0  0  0  0  0  0  0  0  0  0
    0.3441   -0.6475    0.0000 H   0  0  0  0  0  0  0  0  0  0  0  0
    1.0846   -0.6475    0.0000 H   0  0  0  0  0  0  0  0  0  0  0  0
    1.7991    1.2394    0.0000 H   0  0  0  0  0  0  0  0  0  0  0  0
    1.0586    1.2394    0.0000 H   0  0  0  0  0  0  0  0  0  0  0  0
    1.7731   -0.6475    0.0000 H   0  0  0  0  0  0  0  0  0  0  0  0
    2.5136   -0.6475    0.0000 H   0  0  0  0  0  0  0  0  0  0  0  0
    4.6570    1.2394    0.0000 H   0  0  0  0  0  0  0  0  0  0  0  0
    3.9165    1.2394    0.0000 H   0  0  0  0  0  0  0  0  0  0  0  0
    4.6309   -0.6475    0.0000 H   0  0  0  0  0  0  0  0  0  0  0  0
    5.3715   -0.6475    0.0000 H   0  0  0  0  0  0  0  0  0  0  0  0
  1  2  1  0  0  0  0
  2  3  1  0  0  0  0
  3  4  1  0  0  0  0
  4  5  1  0  0  0  0
  5  6  1  0  0  0  0
  6  7  1  0  0  0  0
  7  8  2  0  0  0  0
  7  9  1  0  0  0  0
  9 10  1  0  0  0  0
 10 11  1  0  0  0  0
  2 12  1  0  0  0  0
  2 13  1  0  0  0  0
  3 14  1  0  0  0  0
  3 15  1  0  0  0  0
  4 16  1  0  0  0  0
  4 17  1  0  0  0  0
  5 18  1  0  0  0  0
  5 19  1  0  0  0  0
  9 20  1  0  0  0  0
  9 21  1  0  0  0  0
 10 22  1  0  0  0  0
 10 23  1  0  0  0  0
M  END
>  <id_input>
291

>  <InChIKey>
GEXJJRFMEPZBNW-UHFFFAOYSA-N

>  <substance_name>
-

>  <casrn>
82530-64-1

>  <Molecular weight>
199.07498168945312

>  <guideline>
OECD Guideline 404 (Acute Dermal Irritation / Corrosion)

>  <species>
rabbit

>  <type_of_coverage>
semiocclusive

>  <max_duration(hrs)>
4.0

>  <vehicle>
unchanged (no vehicle)

>  <edema/ erythema score>
2.0

>  <max_score>
2.0

>  <reversibility>
0.0

>  <Outcome>
1

>  <StandardizerResult>
Remove Explicit Hydrogens (ID: RemoveExplicitH)
Clear Stereo (ID: ClearStereo)
Wedge Clean (ID: WedgeClean)
Mesomerize (ID: Mesomerize)
Tautomerize (ID: Tautomerize)
Add Explicit Hydrogens (ID: AddExplicitH)
Neutralize (ID: Neutralize)
Clean 2D (ID: Clean2D)


$$$$

  Mrv1812 02121911042D          

 29 28  0  0  0  0            999 V2000
   -1.0151   -1.6085    0.0000 C   0  0  0  0  0  0  0  0  0  0  0  0
   -0.3006   -1.1960    0.0000 C   0  0  0  0  0  0  0  0  0  0  0  0
    0.4139   -1.6085    0.0000 C   0  0  0  0  0  0  0  0  0  0  0  0
    0.4139   -2.4335    0.0000 O   0  0  0  0  0  0  0  0  0  0  0  0
    1.1284   -1.1960    0.0000 O   0  0  0  0  0  0  0  0  0  0  0  0
    1.8428   -1.6085    0.0000 C   0  0  0  0  0  0  0  0  0  0  0  0
    2.5573   -1.1960    0.0000 C   0  0  0  0  0  0  0  0  0  0  0  0
    3.2718   -1.6085    0.0000 C   0  0  0  0  0  0  0  0  0  0  0  0
    3.9862   -1.1960    0.0000 O   0  0  0  0  0  0  0  0  0  0  0  0
    4.7007   -1.6085    0.0000 C   0  0  0  0  0  0  0  0  0  0  0  0
    5.4152   -1.1960    0.0000 C   0  0  0  0  0  0  0  0  0  0  0  0
   -1.4276   -0.8940    0.0000 H   0  0  0  0  0  0  0  0  0  0  0  0
   -1.7295   -2.0210    0.0000 H   0  0  0  0  0  0  0  0  0  0  0  0
   -0.6026   -2.3229    0.0000 H   0  0  0  0  0  0  0  0  0  0  0  0
    0.0697   -0.4587    0.0000 H   0  0  0  0  0  0  0  0  0  0  0  0
   -0.6708   -0.4587    0.0000 H   0  0  0  0  0  0  0  0  0  0  0  0
   -0.3006   -2.0210    0.0000 H   0  0  0  0  0  0  0  0  0  0  0  0
    0.8264   -3.1479    0.0000 H   0  0  0  0  0  0  0  0  0  0  0  0
    1.4726   -2.3457    0.0000 H   0  0  0  0  0  0  0  0  0  0  0  0
    2.2131   -2.3457    0.0000 H   0  0  0  0  0  0  0  0  0  0  0  0
    2.9276   -0.4587    0.0000 H   0  0  0  0  0  0  0  0  0  0  0  0
    2.1870   -0.4587    0.0000 H   0  0  0  0  0  0  0  0  0  0  0  0
    2.9015   -2.3457    0.0000 H   0  0  0  0  0  0  0  0  0  0  0  0
    3.6420   -2.3457    0.0000 H   0  0  0  0  0  0  0  0  0  0  0  0
    4.3304   -2.3457    0.0000 H   0  0  0  0  0  0  0  0  0  0  0  0
    5.0710   -2.3457    0.0000 H   0  0  0  0  0  0  0  0  0  0  0  0
    5.8277   -1.9104    0.0000 H   0  0  0  0  0  0  0  0  0  0  0  0
    6.1296   -0.7835    0.0000 H   0  0  0  0  0  0  0  0  0  0  0  0
    5.0027   -0.4815    0.0000 H   0  0  0  0  0  0  0  0  0  0  0  0
  1  2  1  0  0  0  0
  2  3  1  0  0  0  0
  3  4  1  0  0  0  0
  3  5  1  0  0  0  0
  5  6  1  0  0  0  0
  6  7  1  0  0  0  0
  7  8  1  0  0  0  0
  8  9  1  0  0  0  0
  9 10  1  0  0  0  0
 10 11  1  0  0  0  0
  1 12  1  0  0  0  0
  1 13  1  0  0  0  0
  1 14  1  0  0  0  0
  2 15  1  0  0  0  0
  2 16  1  0  0  0  0
  3 17  1  0  0  0  0
  4 18  1  0  0  0  0
  6 19  1  0  0  0  0
  6 20  1  0  0  0  0
  7 21  1  0  0  0  0
  7 22  1  0  0  0  0
  8 23  1  0  0  0  0
  8 24  1  0  0  0  0
 10 25  1  0  0  0  0
 10 26  1  0  0  0  0
 11 27  1  0  0  0  0
 11 28  1  0  0  0  0
 11 29  1  0  0  0  0
M  END
>  <id_input>
968

>  <InChIKey>
GEZOSPWWMQDYMS-UHFFFAOYSA-N

>  <substance_name>
-

>  <casrn>
30025-38-8

>  <Molecular weight>
162.2267303466797

>  <guideline>
OECD Guideline 404 (Acute Dermal Irritation / Corrosion)

>  <species>
rabbit

>  <type_of_coverage>
occlusive

>  <max_duration(hrs)>
4.0

>  <vehicle>
unchanged (no vehicle)

>  <edema/ erythema score>
1.5

>  <max_score>
1.0

>  <reversibility>
0.0

>  <Outcome>
1

>  <StandardizerResult>
Remove Explicit Hydrogens (ID: RemoveExplicitH)
Clear Stereo (ID: ClearStereo)
Wedge Clean (ID: WedgeClean)
Mesomerize (ID: Mesomerize)
Tautomerize (ID: Tautomerize)
Add Explicit Hydrogens (ID: AddExplicitH)
Neutralize (ID: Neutralize)
Clean 2D (ID: Clean2D)


$$$$

  Mrv1812 02121911042D          

 26 26  0  0  0  0            999 V2000
    3.3069    0.2006    0.0000 C   0  0  0  0  0  0  0  0  0  0  0  0
    2.5924   -0.2119    0.0000 C   0  0  0  0  0  0  0  0  0  0  0  0
    1.8780    0.2006    0.0000 N   0  0  0  0  0  0  0  0  0  0  0  0
    1.8780    1.0256    0.0000 C   0  0  0  0  0  0  0  0  0  0  0  0
    1.1635    1.4381    0.0000 C   0  0  0  0  0  0  0  0  0  0  0  0
    1.1635   -0.2119    0.0000 C   0  0  0  0  0  0  0  0  0  0  0  0
    0.4490    0.2006    0.0000 C   0  0  0  0  0  0  0  0  0  0  0  0
   -0.2655   -0.2119    0.0000 C   0  0  0  0  0  0  0  0  0  0  0  0
   -0.2655   -1.0369    0.0000 C   0  0  0  0  0  0  0  0  0  0  0  0
    0.4490   -1.4494    0.0000 C   0  0  0  0  0  0  0  0  0  0  0  0
    1.1635   -1.0369    0.0000 C   0  0  0  0  0  0  0  0  0  0  0  0
    3.7194   -0.5139    0.0000 H   0  0  0  0  0  0  0  0  0  0  0  0
    4.0214    0.6131    0.0000 H   0  0  0  0  0  0  0  0  0  0  0  0
    2.8944    0.9151    0.0000 H   0  0  0  0  0  0  0  0  0  0  0  0
    2.2222   -0.9492    0.0000 H   0  0  0  0  0  0  0  0  0  0  0  0
    2.9627   -0.9492    0.0000 H   0  0  0  0  0  0  0  0  0  0  0  0
    2.7016    1.0735    0.0000 H   0  0  0  0  0  0  0  0  0  0  0  0
    2.3313    1.7149    0.0000 H   0  0  0  0  0  0  0  0  0  0  0  0
    1.5760    2.1526    0.0000 H   0  0  0  0  0  0  0  0  0  0  0  0
    0.4490    1.8506    0.0000 H   0  0  0  0  0  0  0  0  0  0  0  0
    0.7510    0.7236    0.0000 H   0  0  0  0  0  0  0  0  0  0  0  0
   -0.1343    0.7839    0.0000 H   0  0  0  0  0  0  0  0  0  0  0  0
   -0.9799    0.2006    0.0000 H   0  0  0  0  0  0  0  0  0  0  0  0
   -0.9799   -1.4494    0.0000 H   0  0  0  0  0  0  0  0  0  0  0  0
    0.4490   -2.2744    0.0000 H   0  0  0  0  0  0  0  0  0  0  0  0
    1.8780   -1.4494    0.0000 H   0  0  0  0  0  0  0  0  0  0  0  0
  1  2  1  0  0  0  0
  2  3  1  0  0  0  0
  3  4  1  0  0  0  0
  4  5  1  0  0  0  0
  3  6  1  0  0  0  0
  7  6  4  0  0  0  0
  8  7  4  0  0  0  0
  9  8  4  0  0  0  0
 10  9  4  0  0  0  0
 11 10  4  0  0  0  0
  6 11  4  0  0  0  0
  1 12  1  0  0  0  0
  1 13  1  0  0  0  0
  1 14  1  0  0  0  0
  2 15  1  0  0  0  0
  2 16  1  0  0  0  0
  4 17  1  0  0  0  0
  4 18  1  0  0  0  0
  5 19  1  0  0  0  0
  5 20  1  0  0  0  0
  5 21  1  0  0  0  0
  7 22  1  0  0  0  0
  8 23  1  0  0  0  0
  9 24  1  0  0  0  0
 10 25  1  0  0  0  0
 11 26  1  0  0  0  0
M  END
>  <id_input>
3405

>  <InChIKey>
GGSUCNLOZRCGPQ-UHFFFAOYSA-N

>  <substance_name>
N,N-diethylaniline

>  <casrn>
91-66-7

>  <Molecular weight>
149.23280334472656

>  <guideline>
OECD Guideline 404 (Acute Dermal Irritation / Corrosion)

>  <species>
rabbit

>  <type_of_coverage>
occlusive

>  <max_duration(hrs)>
4.0

>  <vehicle>
not specified

>  <edema/ erythema score>
2.0

>  <max_score>
3.0

>  <reversibility>
0.0

>  <Outcome>
1

>  <StandardizerResult>
Remove Explicit Hydrogens (ID: RemoveExplicitH)
Dearomatize (ID: Dearomatize)
Clear Stereo (ID: ClearStereo)
Wedge Clean (ID: WedgeClean)
Mesomerize (ID: Mesomerize)
Tautomerize (ID: Tautomerize)
Aromatize (ID: Aromatize)
Add Explicit Hydrogens (ID: AddExplicitH)
Neutralize (ID: Neutralize)
Clean 2D (ID: Clean2D)


$$$$

  Mrv1812 02121911042D          

 18 17  0  0  0  0            999 V2000
   -0.7144    0.4125    0.0000 N   0  0  0  0  0  0  0  0  0  0  0  0
    0.0000    0.0000    0.0000 C   0  0  0  0  0  0  0  0  0  0  0  0
    0.7145    0.4125    0.0000 C   0  0  0  0  0  0  0  0  0  0  0  0
    1.4290    0.0000    0.0000 O   0  0  0  0  0  0  0  0  0  0  0  0
    2.1434    0.4125    0.0000 C   0  0  0  0  0  0  0  0  0  0  0  0
    2.8579    0.0000    0.0000 C   0  0  0  0  0  0  0  0  0  0  0  0
    3.5724    0.4125    0.0000 O   0  0  0  0  0  0  0  0  0  0  0  0
   -0.7144    1.2375    0.0000 H   0  0  0  0  0  0  0  0  0  0  0  0
   -1.4289    0.0000    0.0000 H   0  0  0  0  0  0  0  0  0  0  0  0
   -0.3702   -0.7372    0.0000 H   0  0  0  0  0  0  0  0  0  0  0  0
    0.3703   -0.7372    0.0000 H   0  0  0  0  0  0  0  0  0  0  0  0
    1.0848    1.1497    0.0000 H   0  0  0  0  0  0  0  0  0  0  0  0
    0.3442    1.1497    0.0000 H   0  0  0  0  0  0  0  0  0  0  0  0
    2.5137    1.1497    0.0000 H   0  0  0  0  0  0  0  0  0  0  0  0
    1.7732    1.1497    0.0000 H   0  0  0  0  0  0  0  0  0  0  0  0
    2.4876   -0.7372    0.0000 H   0  0  0  0  0  0  0  0  0  0  0  0
    3.2282   -0.7372    0.0000 H   0  0  0  0  0  0  0  0  0  0  0  0
    4.2868    0.0000    0.0000 H   0  0  0  0  0  0  0  0  0  0  0  0
  1  2  1  0  0  0  0
  2  3  1  0  0  0  0
  3  4  1  0  0  0  0
  4  5  1  0  0  0  0
  5  6  1  0  0  0  0
  6  7  1  0  0  0  0
  1  8  1  0  0  0  0
  1  9  1  0  0  0  0
  2 10  1  0  0  0  0
  2 11  1  0  0  0  0
  3 12  1  0  0  0  0
  3 13  1  0  0  0  0
  5 14  1  0  0  0  0
  5 15  1  0  0  0  0
  6 16  1  0  0  0  0
  6 17  1  0  0  0  0
  7 18  1  0  0  0  0
M  END
>  <id_input>
2176

>  <InChIKey>
GIAFURWZWWWBQT-UHFFFAOYSA-N

>  <substance_name>
2-(2-aminoethoxy)ethan-1-ol

>  <casrn>
929-06-6

>  <Molecular weight>
105.1356430053711

>  <guideline>
OECD Guideline 404 (Acute Dermal Irritation / Corrosion)

>  <species>
rabbit

>  <type_of_coverage>
occlusive

>  <max_duration(hrs)>
24.0

>  <vehicle>
unchanged (no vehicle)

>  <edema/ erythema score>
4.0

>  <max_score>
4.0

>  <reversibility>
1.0

>  <Outcome>
1

>  <StandardizerResult>
Remove Explicit Hydrogens (ID: RemoveExplicitH)
Clear Stereo (ID: ClearStereo)
Wedge Clean (ID: WedgeClean)
Mesomerize (ID: Mesomerize)
Tautomerize (ID: Tautomerize)
Add Explicit Hydrogens (ID: AddExplicitH)
Neutralize (ID: Neutralize)
Clean 2D (ID: Clean2D)


$$$$

  Mrv1812 02121911042D          

 13 13  0  0  0  0            999 V2000
    0.6912    0.0890    0.0000 C   0  0  0  0  0  0  0  0  0  0  0  0
   -0.0232    0.5015    0.0000 C   0  0  0  0  0  0  0  0  0  0  0  0
   -0.7377    0.0890    0.0000 C   0  0  0  0  0  0  0  0  0  0  0  0
   -0.7377   -0.7360    0.0000 C   0  0  0  0  0  0  0  0  0  0  0  0
   -0.0232   -1.1485    0.0000 C   0  0  0  0  0  0  0  0  0  0  0  0
    0.6912   -0.7360    0.0000 C   0  0  0  0  0  0  0  0  0  0  0  0
    1.4057   -1.1485    0.0000 Cl  0  0  0  0  0  0  0  0  0  0  0  0
   -1.4522   -1.1485    0.0000 Br  0  0  0  0  0  0  0  0  0  0  0  0
   -0.0232    1.3265    0.0000 O   0  0  0  0  0  0  0  0  0  0  0  0
    1.4057    0.5015    0.0000 H   0  0  0  0  0  0  0  0  0  0  0  0
   -1.4522    0.5015    0.0000 H   0  0  0  0  0  0  0  0  0  0  0  0
   -0.0232   -1.9735    0.0000 H   0  0  0  0  0  0  0  0  0  0  0  0
    0.6912    1.7390    0.0000 H   0  0  0  0  0  0  0  0  0  0  0  0
  2  1  4  0  0  0  0
  3  2  4  0  0  0  0
  4  3  4  0  0  0  0
  5  4  4  0  0  0  0
  6  5  4  0  0  0  0
  6  7  1  0  0  0  0
  4  8  1  0  0  0  0
  2  9  1  0  0  0  0
  1  6  4  0  0  0  0
  1 10  1  0  0  0  0
  3 11  1  0  0  0  0
  5 12  1  0  0  0  0
  9 13  1  0  0  0  0
M  END
>  <id_input>
812

>  <InChIKey>
GMGWXLPFRHYWAS-UHFFFAOYSA-N

>  <substance_name>
-

>  <casrn>
56962-04-0

>  <Molecular weight>
207.45236206054688

>  <guideline>
EU Method B.4 (Acute Toxicity: Dermal Irritation / Corrosion)

>  <species>
rabbit

>  <type_of_coverage>
semiocclusive

>  <max_duration(hrs)>
4.0

>  <vehicle>
water

>  <edema/ erythema score>
2.0

>  <reversibility>
0.0

>  <Outcome>
1

>  <StandardizerResult>
Remove Explicit Hydrogens (ID: RemoveExplicitH)
Dearomatize (ID: Dearomatize)
Clear Stereo (ID: ClearStereo)
Wedge Clean (ID: WedgeClean)
Mesomerize (ID: Mesomerize)
Tautomerize (ID: Tautomerize)
Aromatize (ID: Aromatize)
Add Explicit Hydrogens (ID: AddExplicitH)
Neutralize (ID: Neutralize)
Clean 2D (ID: Clean2D)


$$$$

  Mrv1812 02121911042D          

 17 17  0  0  0  0            999 V2000
    2.3700    0.4333    0.0000 C   0  0  0  0  0  0  0  0  0  0  0  0
    1.6556    0.0208    0.0000 O   0  0  0  0  0  0  0  0  0  0  0  0
    0.9411    0.4333    0.0000 C   0  0  0  0  0  0  0  0  0  0  0  0
    0.9411    1.2583    0.0000 N   0  0  0  0  0  0  0  0  0  0  0  0
    0.2266    1.6708    0.0000 C   0  0  0  0  0  0  0  0  0  0  0  0
    0.2266    2.4958    0.0000 Cl  0  0  0  0  0  0  0  0  0  0  0  0
   -0.4878    1.2583    0.0000 N   0  0  0  0  0  0  0  0  0  0  0  0
   -0.4878    0.4333    0.0000 C   0  0  0  0  0  0  0  0  0  0  0  0
   -1.2023    0.0208    0.0000 O   0  0  0  0  0  0  0  0  0  0  0  0
   -1.2023   -0.8042    0.0000 C   0  0  0  0  0  0  0  0  0  0  0  0
    0.2266    0.0208    0.0000 N   0  0  0  0  0  0  0  0  0  0  0  0
    2.7825   -0.2812    0.0000 H   0  0  0  0  0  0  0  0  0  0  0  0
    3.0845    0.8458    0.0000 H   0  0  0  0  0  0  0  0  0  0  0  0
    1.9575    1.1478    0.0000 H   0  0  0  0  0  0  0  0  0  0  0  0
   -2.0273   -0.8042    0.0000 H   0  0  0  0  0  0  0  0  0  0  0  0
   -1.2023   -1.6292    0.0000 H   0  0  0  0  0  0  0  0  0  0  0  0
   -0.3773   -0.8042    0.0000 H   0  0  0  0  0  0  0  0  0  0  0  0
  1  2  1  0  0  0  0
  2  3  1  0  0  0  0
  4  3  4  0  0  0  0
  5  4  4  0  0  0  0
  5  6  1  0  0  0  0
  7  5  4  0  0  0  0
  8  7  4  0  0  0  0
  8  9  1  0  0  0  0
  9 10  1  0  0  0  0
 11  8  4  0  0  0  0
  3 11  4  0  0  0  0
  1 12  1  0  0  0  0
  1 13  1  0  0  0  0
  1 14  1  0  0  0  0
 10 15  1  0  0  0  0
 10 16  1  0  0  0  0
 10 17  1  0  0  0  0
M  END
>  <id_input>
2424

>  <InChIKey>
GPIQOFWTZXXOOV-UHFFFAOYSA-N

>  <substance_name>
2-chloro-4,6-dimethoxy-1,3,5-triazine

>  <casrn>
3140-73-6

>  <Molecular weight>
175.5730438232422

>  <guideline>
OECD Guideline 404 (Acute Dermal Irritation / Corrosion)

>  <species>
rabbit

>  <type_of_coverage>
occlusive

>  <max_duration(hrs)>
4.0

>  <vehicle>
water

>  <edema/ erythema score>
2.375

>  <max_score>
4.0

>  <reversibility>
0.0

>  <Outcome>
1

>  <StandardizerResult>
Remove Explicit Hydrogens (ID: RemoveExplicitH)
Dearomatize (ID: Dearomatize)
Clear Stereo (ID: ClearStereo)
Wedge Clean (ID: WedgeClean)
Mesomerize (ID: Mesomerize)
Tautomerize (ID: Tautomerize)
Aromatize (ID: Aromatize)
Add Explicit Hydrogens (ID: AddExplicitH)
Neutralize (ID: Neutralize)
Clean 2D (ID: Clean2D)


$$$$

  Mrv1812 02121911042D          

 31 30  0  0  0  0            999 V2000
   -1.0046    2.6820    0.0000 C   0  0  0  0  0  0  0  0  0  0  0  0
   -0.2901    2.2695    0.0000 N   0  0  0  0  0  0  0  0  0  0  0  0
   -0.2901    1.4445    0.0000 C   0  0  0  0  0  0  0  0  0  0  0  0
    0.4243    2.6820    0.0000 C   0  0  0  0  0  0  0  0  0  0  0  0
    1.1388    2.2695    0.0000 C   0  0  0  0  0  0  0  0  0  0  0  0
    1.8533    2.6820    0.0000 O   0  0  0  0  0  0  0  0  0  0  0  0
    2.5678    2.2695    0.0000 C   0  0  0  0  0  0  0  0  0  0  0  0
    3.2822    2.6820    0.0000 C   0  0  0  0  0  0  0  0  0  0  0  0
    3.9967    2.2695    0.0000 N   0  0  0  0  0  0  0  0  0  0  0  0
    4.7112    2.6820    0.0000 C   0  0  0  0  0  0  0  0  0  0  0  0
    3.9967    1.4445    0.0000 C   0  0  0  0  0  0  0  0  0  0  0  0
   -0.5921    3.3964    0.0000 H   0  0  0  0  0  0  0  0  0  0  0  0
   -1.7191    3.0945    0.0000 H   0  0  0  0  0  0  0  0  0  0  0  0
   -1.4171    1.9675    0.0000 H   0  0  0  0  0  0  0  0  0  0  0  0
   -1.1151    1.4445    0.0000 H   0  0  0  0  0  0  0  0  0  0  0  0
   -0.2901    0.6195    0.0000 H   0  0  0  0  0  0  0  0  0  0  0  0
    0.5349    1.4445    0.0000 H   0  0  0  0  0  0  0  0  0  0  0  0
    0.7946    3.4192    0.0000 H   0  0  0  0  0  0  0  0  0  0  0  0
    0.0541    3.4192    0.0000 H   0  0  0  0  0  0  0  0  0  0  0  0
    0.7686    1.5322    0.0000 H   0  0  0  0  0  0  0  0  0  0  0  0
    1.5091    1.5322    0.0000 H   0  0  0  0  0  0  0  0  0  0  0  0
    2.1975    1.5322    0.0000 H   0  0  0  0  0  0  0  0  0  0  0  0
    2.9380    1.5322    0.0000 H   0  0  0  0  0  0  0  0  0  0  0  0
    3.6525    3.4192    0.0000 H   0  0  0  0  0  0  0  0  0  0  0  0
    2.9120    3.4192    0.0000 H   0  0  0  0  0  0  0  0  0  0  0  0
    5.1237    1.9675    0.0000 H   0  0  0  0  0  0  0  0  0  0  0  0
    5.4256    3.0945    0.0000 H   0  0  0  0  0  0  0  0  0  0  0  0
    4.2987    3.3964    0.0000 H   0  0  0  0  0  0  0  0  0  0  0  0
    3.1717    1.4445    0.0000 H   0  0  0  0  0  0  0  0  0  0  0  0
    3.9967    0.6195    0.0000 H   0  0  0  0  0  0  0  0  0  0  0  0
    4.8217    1.4445    0.0000 H   0  0  0  0  0  0  0  0  0  0  0  0
  1  2  1  0  0  0  0
  2  3  1  0  0  0  0
  2  4  1  0  0  0  0
  4  5  1  0  0  0  0
  5  6  1  0  0  0  0
  6  7  1  0  0  0  0
  7  8  1  0  0  0  0
  8  9  1  0  0  0  0
  9 10  1  0  0  0  0
  9 11  1  0  0  0  0
  1 12  1  0  0  0  0
  1 13  1  0  0  0  0
  1 14  1  0  0  0  0
  3 15  1  0  0  0  0
  3 16  1  0  0  0  0
  3 17  1  0  0  0  0
  4 18  1  0  0  0  0
  4 19  1  0  0  0  0
  5 20  1  0  0  0  0
  5 21  1  0  0  0  0
  7 22  1  0  0  0  0
  7 23  1  0  0  0  0
  8 24  1  0  0  0  0
  8 25  1  0  0  0  0
 10 26  1  0  0  0  0
 10 27  1  0  0  0  0
 10 28  1  0  0  0  0
 11 29  1  0  0  0  0
 11 30  1  0  0  0  0
 11 31  1  0  0  0  0
M  END
>  <id_input>
6178, 6179

>  <InChIKey>
GTEXIOINCJRBIO-UHFFFAOYSA-N

>  <substance_name>
{2-[2-(dimethylamino)ethoxy]ethyl}dimethylamine

>  <casrn>
3033-62-3

>  <Molecular weight>
160.2572021484375

>  <guideline>
OECD Guideline 404 (Acute Dermal Irritation / Corrosion)

>  <species>
rabbit

>  <type_of_coverage>
semiocclusive

>  <max_duration(hrs)>
12.5

>  <vehicle>
unchanged (no vehicle)

>  <edema/ erythema score>
3.83333333333333

>  <max_score>
4.0

>  <reversibility>
0.5

>  <Outcome>
1

>  <StandardizerResult>
Remove Explicit Hydrogens (ID: RemoveExplicitH)
Clear Stereo (ID: ClearStereo)
Wedge Clean (ID: WedgeClean)
Mesomerize (ID: Mesomerize)
Tautomerize (ID: Tautomerize)
Add Explicit Hydrogens (ID: AddExplicitH)
Neutralize (ID: Neutralize)
Clean 2D (ID: Clean2D)


$$$$

  Mrv1812 02121911042D          

 80 79  0  0  0  0            999 V2000
   -1.4370   -0.1489    0.0000 C   0  0  0  0  0  0  0  0  0  0  0  0
   -0.6120   -0.1489    0.0000 C   0  0  0  0  0  0  0  0  0  0  0  0
   -0.1995   -0.8633    0.0000 C   0  0  0  0  0  0  0  0  0  0  0  0
    0.6255   -0.8633    0.0000 C   0  0  0  0  0  0  0  0  0  0  0  0
    1.0380   -1.5778    0.0000 C   0  0  0  0  0  0  0  0  0  0  0  0
    0.6255   -2.2923    0.0000 C   0  0  0  0  0  0  0  0  0  0  0  0
   -0.1995   -2.2923    0.0000 C   0  0  0  0  0  0  0  0  0  0  0  0
    1.8630   -1.5778    0.0000 C   0  0  0  0  0  0  0  0  0  0  0  0
    2.2755   -2.2923    0.0000 O   0  0  0  0  0  0  0  0  0  0  0  0
    3.1005   -2.2923    0.0000 P   0  0  0  0  0  0  0  0  0  0  0  0
    3.1005   -3.1173    0.0000 O   0  0  0  0  0  0  0  0  0  0  0  0
    3.9255   -2.2923    0.0000 O   0  0  0  0  0  0  0  0  0  0  0  0
    4.3380   -3.0067    0.0000 C   0  0  0  0  0  0  0  0  0  0  0  0
    5.1630   -3.0067    0.0000 C   0  0  0  0  0  0  0  0  0  0  0  0
    5.5755   -2.2923    0.0000 C   0  0  0  0  0  0  0  0  0  0  0  0
    6.4005   -2.2923    0.0000 C   0  0  0  0  0  0  0  0  0  0  0  0
    5.5755   -3.7212    0.0000 C   0  0  0  0  0  0  0  0  0  0  0  0
    6.4005   -3.7212    0.0000 C   0  0  0  0  0  0  0  0  0  0  0  0
    6.8130   -4.4357    0.0000 C   0  0  0  0  0  0  0  0  0  0  0  0
    7.6380   -4.4357    0.0000 C   0  0  0  0  0  0  0  0  0  0  0  0
    3.1005   -1.4673    0.0000 O   0  0  0  0  0  0  0  0  0  0  0  0
    2.3860   -1.0548    0.0000 C   0  0  0  0  0  0  0  0  0  0  0  0
    2.3860   -0.2298    0.0000 C   0  0  0  0  0  0  0  0  0  0  0  0
    1.6715    0.1827    0.0000 C   0  0  0  0  0  0  0  0  0  0  0  0
    0.9571   -0.2298    0.0000 C   0  0  0  0  0  0  0  0  0  0  0  0
    3.1005    0.1827    0.0000 C   0  0  0  0  0  0  0  0  0  0  0  0
    3.8149   -0.2298    0.0000 C   0  0  0  0  0  0  0  0  0  0  0  0
    4.5294    0.1827    0.0000 C   0  0  0  0  0  0  0  0  0  0  0  0
    5.2439   -0.2298    0.0000 C   0  0  0  0  0  0  0  0  0  0  0  0
   -1.4370    0.6761    0.0000 H   0  0  0  0  0  0  0  0  0  0  0  0
   -2.2620   -0.1489    0.0000 H   0  0  0  0  0  0  0  0  0  0  0  0
   -1.4370   -0.9739    0.0000 H   0  0  0  0  0  0  0  0  0  0  0  0
    0.0772    0.3045    0.0000 H   0  0  0  0  0  0  0  0  0  0  0  0
   -0.5641    0.6747    0.0000 H   0  0  0  0  0  0  0  0  0  0  0  0
   -0.8888   -1.3167    0.0000 H   0  0  0  0  0  0  0  0  0  0  0  0
   -0.2475   -1.6869    0.0000 H   0  0  0  0  0  0  0  0  0  0  0  0
    0.1983   -0.1576    0.0000 H   0  0  0  0  0  0  0  0  0  0  0  0
    1.4503   -0.8462    0.0000 H   0  0  0  0  0  0  0  0  0  0  0  0
    0.2130   -1.5778    0.0000 H   0  0  0  0  0  0  0  0  0  0  0  0
    0.6734   -3.1159    0.0000 H   0  0  0  0  0  0  0  0  0  0  0  0
    1.3147   -2.7456    0.0000 H   0  0  0  0  0  0  0  0  0  0  0  0
   -0.9791   -2.0223    0.0000 H   0  0  0  0  0  0  0  0  0  0  0  0
   -0.7594   -2.8982    0.0000 H   0  0  0  0  0  0  0  0  0  0  0  0
    0.1312   -3.0481    0.0000 H   0  0  0  0  0  0  0  0  0  0  0  0
    1.4505   -2.2923    0.0000 H   0  0  0  0  0  0  0  0  0  0  0  0
    2.6809   -1.6855    0.0000 H   0  0  0  0  0  0  0  0  0  0  0  0
    3.6487   -3.4601    0.0000 H   0  0  0  0  0  0  0  0  0  0  0  0
    4.2900   -3.8303    0.0000 H   0  0  0  0  0  0  0  0  0  0  0  0
    4.7505   -2.2923    0.0000 H   0  0  0  0  0  0  0  0  0  0  0  0
    5.8576   -1.5170    0.0000 H   0  0  0  0  0  0  0  0  0  0  0  0
    5.2933   -1.5170    0.0000 H   0  0  0  0  0  0  0  0  0  0  0  0
    6.2044   -3.0936    0.0000 H   0  0  0  0  0  0  0  0  0  0  0  0
    7.1323   -2.6732    0.0000 H   0  0  0  0  0  0  0  0  0  0  0  0
    6.9444   -1.6720    0.0000 H   0  0  0  0  0  0  0  0  0  0  0  0
    4.8862   -4.1746    0.0000 H   0  0  0  0  0  0  0  0  0  0  0  0
    5.5275   -4.5448    0.0000 H   0  0  0  0  0  0  0  0  0  0  0  0
    7.1560   -3.3899    0.0000 H   0  0  0  0  0  0  0  0  0  0  0  0
    5.9880   -4.4357    0.0000 H   0  0  0  0  0  0  0  0  0  0  0  0
    6.5308   -5.2109    0.0000 H   0  0  0  0  0  0  0  0  0  0  0  0
    7.0951   -5.2109    0.0000 H   0  0  0  0  0  0  0  0  0  0  0  0
    8.1819   -5.0560    0.0000 H   0  0  0  0  0  0  0  0  0  0  0  0
    8.3698   -4.0547    0.0000 H   0  0  0  0  0  0  0  0  0  0  0  0
    7.4419   -3.6343    0.0000 H   0  0  0  0  0  0  0  0  0  0  0  0
    3.1985   -0.9115    0.0000 H   0  0  0  0  0  0  0  0  0  0  0  0
    2.9163   -0.4228    0.0000 H   0  0  0  0  0  0  0  0  0  0  0  0
    1.6715   -0.6423    0.0000 H   0  0  0  0  0  0  0  0  0  0  0  0
    2.0418    0.9200    0.0000 H   0  0  0  0  0  0  0  0  0  0  0  0
    1.3013    0.9200    0.0000 H   0  0  0  0  0  0  0  0  0  0  0  0
    1.2908    0.5247    0.0000 H   0  0  0  0  0  0  0  0  0  0  0  0
    0.7816    0.5763    0.0000 H   0  0  0  0  0  0  0  0  0  0  0  0
    0.3399    0.3177    0.0000 H   0  0  0  0  0  0  0  0  0  0  0  0
    3.4707    0.9200    0.0000 H   0  0  0  0  0  0  0  0  0  0  0  0
    2.7302    0.9200    0.0000 H   0  0  0  0  0  0  0  0  0  0  0  0
    4.3334   -0.8715    0.0000 H   0  0  0  0  0  0  0  0  0  0  0  0
    3.8149    0.5952    0.0000 H   0  0  0  0  0  0  0  0  0  0  0  0
    5.1614    0.7130    0.0000 H   0  0  0  0  0  0  0  0  0  0  0  0
    4.6727    0.9952    0.0000 H   0  0  0  0  0  0  0  0  0  0  0  0
    4.6734   -0.8257    0.0000 H   0  0  0  0  0  0  0  0  0  0  0  0
    5.6872   -0.9256    0.0000 H   0  0  0  0  0  0  0  0  0  0  0  0
    6.0251    0.0354    0.0000 H   0  0  0  0  0  0  0  0  0  0  0  0
  1  2  1  0  0  0  0
  2  3  1  0  0  0  0
  3  4  1  0  0  0  0
  4  5  1  0  0  0  0
  5  6  1  0  0  0  0
  6  7  1  0  0  0  0
  5  8  1  0  0  0  0
  8  9  1  0  0  0  0
  9 10  1  0  0  0  0
 10 11  2  0  0  0  0
 10 12  1  0  0  0  0
 12 13  1  0  0  0  0
 13 14  1  0  0  0  0
 14 15  1  0  0  0  0
 15 16  1  0  0  0  0
 14 17  1  0  0  0  0
 17 18  1  0  0  0  0
 18 19  1  0  0  0  0
 19 20  1  0  0  0  0
 10 21  1  0  0  0  0
 21 22  1  0  0  0  0
 22 23  1  0  0  0  0
 23 24  1  0  0  0  0
 24 25  1  0  0  0  0
 23 26  1  0  0  0  0
 26 27  1  0  0  0  0
 27 28  1  0  0  0  0
 28 29  1  0  0  0  0
  1 30  1  0  0  0  0
  1 31  1  0  0  0  0
  1 32  1  0  0  0  0
  2 33  1  0  0  0  0
  2 34  1  0  0  0  0
  3 35  1  0  0  0  0
  3 36  1  0  0  0  0
  4 37  1  0  0  0  0
  4 38  1  0  0  0  0
  5 39  1  0  0  0  0
  6 40  1  0  0  0  0
  6 41  1  0  0  0  0
  7 42  1  0  0  0  0
  7 43  1  0  0  0  0
  7 44  1  0  0  0  0
  8 45  1  0  0  0  0
  8 46  1  0  0  0  0
 13 47  1  0  0  0  0
 13 48  1  0  0  0  0
 14 49  1  0  0  0  0
 15 50  1  0  0  0  0
 15 51  1  0  0  0  0
 16 52  1  0  0  0  0
 16 53  1  0  0  0  0
 16 54  1  0  0  0  0
 17 55  1  0  0  0  0
 17 56  1  0  0  0  0
 18 57  1  0  0  0  0
 18 58  1  0  0  0  0
 19 59  1  0  0  0  0
 19 60  1  0  0  0  0
 20 61  1  0  0  0  0
 20 62  1  0  0  0  0
 20 63  1  0  0  0  0
 22 64  1  0  0  0  0
 22 65  1  0  0  0  0
 23 66  1  0  0  0  0
 24 67  1  0  0  0  0
 24 68  1  0  0  0  0
 25 69  1  0  0  0  0
 25 70  1  0  0  0  0
 25 71  1  0  0  0  0
 26 72  1  0  0  0  0
 26 73  1  0  0  0  0
 27 74  1  0  0  0  0
 27 75  1  0  0  0  0
 28 76  1  0  0  0  0
 28 77  1  0  0  0  0
 29 78  1  0  0  0  0
 29 79  1  0  0  0  0
 29 80  1  0  0  0  0
M  END
>  <id_input>
5174

>  <InChIKey>
GTVWRXDRKAHEAD-UHFFFAOYSA-N

>  <substance_name>
tris(2-ethylhexyl) phosphate

>  <casrn>
78-42-2

>  <Molecular weight>
434.63311767578125

>  <guideline>
OECD Guideline 404 (Acute Dermal Irritation / Corrosion)

>  <species>
rabbit

>  <type_of_coverage>
semiocclusive

>  <max_duration(hrs)>
4.0

>  <vehicle>
unchanged (no vehicle)

>  <edema/ erythema score>
2.22

>  <max_score>
4.0

>  <reversibility>
0.0

>  <Outcome>
1

>  <StandardizerResult>
Remove Explicit Hydrogens (ID: RemoveExplicitH)
Clear Stereo (ID: ClearStereo)
Wedge Clean (ID: WedgeClean)
Mesomerize (ID: Mesomerize)
Tautomerize (ID: Tautomerize)
Add Explicit Hydrogens (ID: AddExplicitH)
Neutralize (ID: Neutralize)
Clean 2D (ID: Clean2D)


$$$$

  Mrv1812 02121911042D          

 36 36  0  0  0  0            999 V2000
   -2.3358   -1.9025    0.0000 C   0  0  0  0  0  0  0  0  0  0  0  0
   -1.6214   -2.3150    0.0000 C   0  0  0  0  0  0  0  0  0  0  0  0
   -0.9069   -1.9025    0.0000 C   0  0  0  0  0  0  0  0  0  0  0  0
   -0.1924   -2.3150    0.0000 C   0  0  0  0  0  0  0  0  0  0  0  0
    0.5221   -1.9025    0.0000 C   0  0  0  0  0  0  0  0  0  0  0  0
    1.2365   -2.3150    0.0000 C   0  0  0  0  0  0  0  0  0  0  0  0
    1.9510   -1.9025    0.0000 C   0  0  0  0  0  0  0  0  0  0  0  0
    2.6655   -2.3150    0.0000 C   0  0  0  0  0  0  0  0  0  0  0  0
    3.3799   -1.9025    0.0000 C   0  0  0  0  0  0  0  0  0  0  0  0
    4.0944   -2.3150    0.0000 C   0  0  0  0  0  0  0  0  0  0  0  0
    4.8089   -1.9025    0.0000 C   0  0  0  0  0  0  0  0  0  0  0  0
    4.8089   -1.0775    0.0000 C   0  0  0  0  0  0  0  0  0  0  0  0
    4.0944   -0.6650    0.0000 C   0  0  0  0  0  0  0  0  0  0  0  0
    3.3799   -1.0775    0.0000 C   0  0  0  0  0  0  0  0  0  0  0  0
    1.9510   -1.0775    0.0000 C   0  0  0  0  0  0  0  0  0  0  0  0
    2.6655   -0.6650    0.0000 O   0  0  0  0  0  0  0  0  0  0  0  0
   -1.9233   -1.1880    0.0000 H   0  0  0  0  0  0  0  0  0  0  0  0
   -3.0503   -1.4900    0.0000 H   0  0  0  0  0  0  0  0  0  0  0  0
   -2.7483   -2.6170    0.0000 H   0  0  0  0  0  0  0  0  0  0  0  0
   -1.9916   -3.0522    0.0000 H   0  0  0  0  0  0  0  0  0  0  0  0
   -1.2511   -3.0522    0.0000 H   0  0  0  0  0  0  0  0  0  0  0  0
   -0.5366   -1.1652    0.0000 H   0  0  0  0  0  0  0  0  0  0  0  0
   -1.2771   -1.1652    0.0000 H   0  0  0  0  0  0  0  0  0  0  0  0
   -0.5627   -3.0522    0.0000 H   0  0  0  0  0  0  0  0  0  0  0  0
    0.1778   -3.0522    0.0000 H   0  0  0  0  0  0  0  0  0  0  0  0
    0.8923   -1.1652    0.0000 H   0  0  0  0  0  0  0  0  0  0  0  0
    0.1518   -1.1652    0.0000 H   0  0  0  0  0  0  0  0  0  0  0  0
    0.8663   -3.0522    0.0000 H   0  0  0  0  0  0  0  0  0  0  0  0
    1.6068   -3.0522    0.0000 H   0  0  0  0  0  0  0  0  0  0  0  0
    2.6655   -3.1400    0.0000 H   0  0  0  0  0  0  0  0  0  0  0  0
    4.0944   -3.1400    0.0000 H   0  0  0  0  0  0  0  0  0  0  0  0
    5.5234   -2.3150    0.0000 H   0  0  0  0  0  0  0  0  0  0  0  0
    5.5234   -0.6650    0.0000 H   0  0  0  0  0  0  0  0  0  0  0  0
    4.0944    0.1600    0.0000 H   0  0  0  0  0  0  0  0  0  0  0  0
    3.3799   -0.2525    0.0000 H   0  0  0  0  0  0  0  0  0  0  0  0
    1.2365   -0.6650    0.0000 H   0  0  0  0  0  0  0  0  0  0  0  0
  1  2  1  0  0  0  0
  2  3  1  0  0  0  0
  3  4  1  0  0  0  0
  4  5  1  0  0  0  0
  5  6  1  0  0  0  0
  6  7  1  0  0  0  0
  7  8  2  0  0  0  0
  8  9  1  4  0  0  0
 10  9  4  0  0  0  0
 11 10  4  0  0  0  0
 12 11  4  0  0  0  0
 13 12  4  0  0  0  0
 14 13  4  0  0  0  0
  7 15  1  0  0  0  0
 15 16  2  0  0  0  0
  9 14  4  0  0  0  0
  1 17  1  0  0  0  0
  1 18  1  0  0  0  0
  1 19  1  0  0  0  0
  2 20  1  0  0  0  0
  2 21  1  0  0  0  0
  3 22  1  0  0  0  0
  3 23  1  0  0  0  0
  4 24  1  0  0  0  0
  4 25  1  0  0  0  0
  5 26  1  0  0  0  0
  5 27  1  0  0  0  0
  6 28  1  0  0  0  0
  6 29  1  0  0  0  0
  8 30  1  0  0  0  0
 10 31  1  0  0  0  0
 11 32  1  0  0  0  0
 12 33  1  0  0  0  0
 13 34  1  0  0  0  0
 14 35  1  0  0  0  0
 15 36  1  0  0  0  0
M  END
>  <id_input>
5331

>  <InChIKey>
GUUHFMWKWLOQMM-UHFFFAOYSA-N

>  <substance_name>
unnamed [165184-98-5]

>  <casrn>
165184-98-5

>  <Molecular weight>
216.31871032714844

>  <guideline>
EU Method B.4 (Acute Toxicity: Dermal Irritation / Corrosion)

>  <species>
rabbit

>  <type_of_coverage>
semiocclusive

>  <max_duration(hrs)>
4.0

>  <vehicle>
unchanged (no vehicle)

>  <edema/ erythema score>
2.0

>  <max_score>
4.0

>  <reversibility>
0.0

>  <Outcome>
1

>  <StandardizerResult>
Remove Explicit Hydrogens (ID: RemoveExplicitH)
Dearomatize (ID: Dearomatize)
Clear Stereo (ID: ClearStereo)
Wedge Clean (ID: WedgeClean)
Mesomerize (ID: Mesomerize)
Tautomerize (ID: Tautomerize)
Aromatize (ID: Aromatize)
Add Explicit Hydrogens (ID: AddExplicitH)
Neutralize (ID: Neutralize)
Clean 2D (ID: Clean2D)


$$$$

  Mrv1812 02121911042D          

 44 44  0  0  0  0            999 V2000
    5.4030   -2.6613    0.0000 C   0  0  0  0  0  0  0  0  0  0  0  0
    4.7899   -2.1093    0.0000 C   0  0  0  0  0  0  0  0  0  0  0  0
    4.0053   -2.3643    0.0000 O   0  0  0  0  0  0  0  0  0  0  0  0
    3.3922   -1.8122    0.0000 Si  0  0  0  0  0  4  0  0  0  0  0  0
    2.7791   -1.2602    0.0000 C   0  0  0  0  0  0  0  0  0  0  0  0
    1.9944   -1.5151    0.0000 C   0  0  0  0  0  0  0  0  0  0  0  0
    1.3813   -0.9631    0.0000 C   0  0  0  0  0  0  0  0  0  0  0  0
    0.5967   -1.2180    0.0000 C   0  0  0  0  0  0  0  0  0  0  0  0
   -0.0707   -0.7331    0.0000 C   0  0  0  0  0  0  0  0  0  0  0  0
   -0.7381   -1.2180    0.0000 C   0  0  0  0  0  0  0  0  0  0  0  0
   -1.5228   -0.9631    0.0000 O   0  0  0  0  0  0  0  0  0  0  0  0
   -0.4832   -2.0027    0.0000 O   0  0  0  0  0  0  0  0  0  0  0  0
    0.3418   -2.0027    0.0000 C   0  0  0  0  0  0  0  0  0  0  0  0
    0.8267   -2.6701    0.0000 O   0  0  0  0  0  0  0  0  0  0  0  0
    3.9442   -1.1991    0.0000 O   0  0  0  0  0  0  0  0  0  0  0  0
    3.6893   -0.4145    0.0000 C   0  0  0  0  0  0  0  0  0  0  0  0
    4.2413    0.1986    0.0000 C   0  0  0  0  0  0  0  0  0  0  0  0
    2.8401   -2.4253    0.0000 O   0  0  0  0  0  0  0  0  0  0  0  0
    2.0332   -2.2538    0.0000 C   0  0  0  0  0  0  0  0  0  0  0  0
    1.4811   -2.8669    0.0000 C   0  0  0  0  0  0  0  0  0  0  0  0
    4.8509   -3.2744    0.0000 H   0  0  0  0  0  0  0  0  0  0  0  0
    6.0161   -3.2134    0.0000 H   0  0  0  0  0  0  0  0  0  0  0  0
    5.9550   -2.0483    0.0000 H   0  0  0  0  0  0  0  0  0  0  0  0
    5.3053   -1.4652    0.0000 H   0  0  0  0  0  0  0  0  0  0  0  0
    4.5810   -1.3112    0.0000 H   0  0  0  0  0  0  0  0  0  0  0  0
    3.2945   -0.6160    0.0000 H   0  0  0  0  0  0  0  0  0  0  0  0
    2.5702   -0.4621    0.0000 H   0  0  0  0  0  0  0  0  0  0  0  0
    1.2498   -1.8703    0.0000 H   0  0  0  0  0  0  0  0  0  0  0  0
    2.1660   -0.7082    0.0000 H   0  0  0  0  0  0  0  0  0  0  0  0
    1.4101   -0.1386    0.0000 H   0  0  0  0  0  0  0  0  0  0  0  0
    0.8734   -0.3130    0.0000 H   0  0  0  0  0  0  0  0  0  0  0  0
   -0.1879   -1.4730    0.0000 H   0  0  0  0  0  0  0  0  0  0  0  0
    0.3166   -0.0047    0.0000 H   0  0  0  0  0  0  0  0  0  0  0  0
   -0.4580   -0.0047    0.0000 H   0  0  0  0  0  0  0  0  0  0  0  0
    3.1868    0.2398    0.0000 H   0  0  0  0  0  0  0  0  0  0  0  0
    4.4962   -0.5860    0.0000 H   0  0  0  0  0  0  0  0  0  0  0  0
    5.0652    0.2418    0.0000 H   0  0  0  0  0  0  0  0  0  0  0  0
    4.4128    1.0056    0.0000 H   0  0  0  0  0  0  0  0  0  0  0  0
    3.5062    0.5731    0.0000 H   0  0  0  0  0  0  0  0  0  0  0  0
    2.2881   -3.0384    0.0000 H   0  0  0  0  0  0  0  0  0  0  0  0
    2.6605   -1.7180    0.0000 H   0  0  0  0  0  0  0  0  0  0  0  0
    1.0092   -3.5436    0.0000 H   0  0  0  0  0  0  0  0  0  0  0  0
    1.5696   -3.6871    0.0000 H   0  0  0  0  0  0  0  0  0  0  0  0
    1.2588   -2.0724    0.0000 H   0  0  0  0  0  0  0  0  0  0  0  0
  1  2  1  0  0  0  0
  2  3  1  0  0  0  0
  3  4  1  0  0  0  0
  4  5  1  0  0  0  0
  5  6  1  0  0  0  0
  6  7  1  0  0  0  0
  7  8  1  0  0  0  0
  9  8  1  0  0  0  0
 10  9  1  0  0  0  0
 10 11  2  0  0  0  0
 12 10  1  0  0  0  0
 13 12  1  0  0  0  0
 13 14  2  0  0  0  0
  4 15  1  0  0  0  0
 15 16  1  0  0  0  0
 16 17  1  0  0  0  0
  4 18  1  0  0  0  0
 18 19  1  0  0  0  0
 19 20  1  0  0  0  0
  8 13  1  0  0  0  0
  1 21  1  0  0  0  0
  1 22  1  0  0  0  0
  1 23  1  0  0  0  0
  2 24  1  0  0  0  0
  2 25  1  0  0  0  0
  5 26  1  0  0  0  0
  5 27  1  0  0  0  0
  6 28  1  0  0  0  0
  6 29  1  0  0  0  0
  7 30  1  0  0  0  0
  7 31  1  0  0  0  0
  8 32  1  0  0  0  0
  9 33  1  0  0  0  0
  9 34  1  0  0  0  0
 16 35  1  0  0  0  0
 16 36  1  0  0  0  0
 17 37  1  0  0  0  0
 17 38  1  0  0  0  0
 17 39  1  0  0  0  0
 19 40  1  0  0  0  0
 19 41  1  0  0  0  0
 20 42  1  0  0  0  0
 20 43  1  0  0  0  0
 20 44  1  0  0  0  0
M  END
>  <id_input>
2720

>  <InChIKey>
GXDMUOPCQNLBCZ-UHFFFAOYSA-N

>  <substance_name>
3-[3-(triethoxysilyl)propyl]dihydrofuran-2,5-dione

>  <casrn>
93642-68-3

>  <Molecular weight>
304.41156005859375

>  <guideline>
OECD Guideline 404 (Acute Dermal Irritation / Corrosion)

>  <species>
rabbit

>  <type_of_coverage>
semiocclusive

>  <max_duration(hrs)>
4.0

>  <vehicle>
unchanged (no vehicle)

>  <edema/ erythema score>
1.5

>  <max_score>
4.0

>  <reversibility>
0.0

>  <Outcome>
1

>  <StandardizerResult>
Remove Explicit Hydrogens (ID: RemoveExplicitH)
Clear Stereo (ID: ClearStereo)
Wedge Clean (ID: WedgeClean)
Mesomerize (ID: Mesomerize)
Tautomerize (ID: Tautomerize)
Add Explicit Hydrogens (ID: AddExplicitH)
Neutralize (ID: Neutralize)
Clean 2D (ID: Clean2D)


$$$$

  Mrv1812 02121911042D          

 89 89  0  0  0  0            999 V2000
   -3.7134   -0.8235    0.0000 C   0  0  0  0  0  0  0  0  0  0  0  0
   -3.7134    0.0015    0.0000 C   0  0  0  0  0  0  0  0  0  0  0  0
   -2.9989    0.4140    0.0000 C   0  0  0  0  0  0  0  0  0  0  0  0
   -2.2845    0.0015    0.0000 C   0  0  0  0  0  0  0  0  0  0  0  0
   -2.2845   -0.8235    0.0000 O   0  0  0  0  0  0  0  0  0  0  0  0
   -1.5700    0.4140    0.0000 O   0  0  0  0  0  0  0  0  0  0  0  0
   -0.8555    0.0015    0.0000 C   0  0  0  0  0  0  0  0  0  0  0  0
   -0.1411    0.4140    0.0000 C   0  0  0  0  0  0  0  0  0  0  0  0
    0.5734    0.0015    0.0000 N   0  0  0  0  0  0  0  0  0  0  0  0
    0.5734   -0.8235    0.0000 C   0  0  0  0  0  0  0  0  0  0  0  0
    1.2879   -1.2360    0.0000 C   0  0  0  0  0  0  0  0  0  0  0  0
    2.0023   -0.8235    0.0000 C   0  0  0  0  0  0  0  0  0  0  0  0
    2.0023    0.0015    0.0000 C   0  0  0  0  0  0  0  0  0  0  0  0
    1.2879    0.4140    0.0000 C   0  0  0  0  0  0  0  0  0  0  0  0
    1.8182    1.0459    0.0000 C   0  0  0  0  0  0  0  0  0  0  0  0
    0.7576    1.0459    0.0000 C   0  0  0  0  0  0  0  0  0  0  0  0
    2.7168   -1.2360    0.0000 O   0  0  0  0  0  0  0  0  0  0  0  0
    3.4313   -0.8235    0.0000 C   0  0  0  0  0  0  0  0  0  0  0  0
    3.4313    0.0015    0.0000 O   0  0  0  0  0  0  0  0  0  0  0  0
    4.1458   -1.2360    0.0000 C   0  0  0  0  0  0  0  0  0  0  0  0
    4.8602   -0.8235    0.0000 C   0  0  0  0  0  0  0  0  0  0  0  0
    4.8602    0.0015    0.0000 C   0  0  0  0  0  0  0  0  0  0  0  0
    5.5747   -1.2360    0.0000 C   0  0  0  0  0  0  0  0  0  0  0  0
    6.2892   -0.8235    0.0000 C   0  0  0  0  0  0  0  0  0  0  0  0
    7.0036   -0.4110    0.0000 C   0  0  0  0  0  0  0  0  0  0  0  0
    5.8767   -0.1091    0.0000 C   0  0  0  0  0  0  0  0  0  0  0  0
    6.7017   -1.5380    0.0000 C   0  0  0  0  0  0  0  0  0  0  0  0
   -0.2511   -0.8523    0.0000 C   0  0  0  0  0  0  0  0  0  0  0  0
    0.1362   -1.5232    0.0000 C   0  0  0  0  0  0  0  0  0  0  0  0
   -4.4279    0.4140    0.0000 C   0  0  0  0  0  0  0  0  0  0  0  0
   -5.1424    0.0015    0.0000 C   0  0  0  0  0  0  0  0  0  0  0  0
   -5.8568   -0.4110    0.0000 C   0  0  0  0  0  0  0  0  0  0  0  0
   -5.5549    0.7159    0.0000 C   0  0  0  0  0  0  0  0  0  0  0  0
   -4.7299   -0.7130    0.0000 C   0  0  0  0  0  0  0  0  0  0  0  0
   -4.5384   -0.8235    0.0000 H   0  0  0  0  0  0  0  0  0  0  0  0
   -3.7134   -1.6485    0.0000 H   0  0  0  0  0  0  0  0  0  0  0  0
   -2.8884   -0.8235    0.0000 H   0  0  0  0  0  0  0  0  0  0  0  0
   -2.9989   -0.4110    0.0000 H   0  0  0  0  0  0  0  0  0  0  0  0
   -2.6287    1.1512    0.0000 H   0  0  0  0  0  0  0  0  0  0  0  0
   -3.3692    1.1512    0.0000 H   0  0  0  0  0  0  0  0  0  0  0  0
   -1.2258   -0.7358    0.0000 H   0  0  0  0  0  0  0  0  0  0  0  0
   -0.4853   -0.7358    0.0000 H   0  0  0  0  0  0  0  0  0  0  0  0
    0.2292    1.1512    0.0000 H   0  0  0  0  0  0  0  0  0  0  0  0
   -0.5113    1.1512    0.0000 H   0  0  0  0  0  0  0  0  0  0  0  0
    0.9176   -1.9733    0.0000 H   0  0  0  0  0  0  0  0  0  0  0  0
    1.6581   -1.9733    0.0000 H   0  0  0  0  0  0  0  0  0  0  0  0
    2.0023   -1.6485    0.0000 H   0  0  0  0  0  0  0  0  0  0  0  0
    2.8260    0.0494    0.0000 H   0  0  0  0  0  0  0  0  0  0  0  0
    2.4557    0.6907    0.0000 H   0  0  0  0  0  0  0  0  0  0  0  0
    2.4885    1.5268    0.0000 H   0  0  0  0  0  0  0  0  0  0  0  0
    1.6687    1.8573    0.0000 H   0  0  0  0  0  0  0  0  0  0  0  0
    1.0205    1.2564    0.0000 H   0  0  0  0  0  0  0  0  0  0  0  0
    0.8719    1.8630    0.0000 H   0  0  0  0  0  0  0  0  0  0  0  0
    0.2799    1.7186    0.0000 H   0  0  0  0  0  0  0  0  0  0  0  0
    0.3372    0.3361    0.0000 H   0  0  0  0  0  0  0  0  0  0  0  0
    3.7755   -1.9733    0.0000 H   0  0  0  0  0  0  0  0  0  0  0  0
    4.5160   -1.9733    0.0000 H   0  0  0  0  0  0  0  0  0  0  0  0
    4.1458   -0.4110    0.0000 H   0  0  0  0  0  0  0  0  0  0  0  0
    5.6571   -0.2121    0.0000 H   0  0  0  0  0  0  0  0  0  0  0  0
    5.2727    0.7159    0.0000 H   0  0  0  0  0  0  0  0  0  0  0  0
    4.2769    0.5848    0.0000 H   0  0  0  0  0  0  0  0  0  0  0  0
    5.2044   -1.9733    0.0000 H   0  0  0  0  0  0  0  0  0  0  0  0
    5.9450   -1.9733    0.0000 H   0  0  0  0  0  0  0  0  0  0  0  0
    7.4161   -1.1255    0.0000 H   0  0  0  0  0  0  0  0  0  0  0  0
    7.7181    0.0015    0.0000 H   0  0  0  0  0  0  0  0  0  0  0  0
    6.5911    0.3034    0.0000 H   0  0  0  0  0  0  0  0  0  0  0  0
    6.1071    0.6831    0.0000 H   0  0  0  0  0  0  0  0  0  0  0  0
    5.4949    0.6223    0.0000 H   0  0  0  0  0  0  0  0  0  0  0  0
    5.0950    0.1548    0.0000 H   0  0  0  0  0  0  0  0  0  0  0  0
    6.4872   -2.3347    0.0000 H   0  0  0  0  0  0  0  0  0  0  0  0
    7.1136   -2.2528    0.0000 H   0  0  0  0  0  0  0  0  0  0  0  0
    7.4985   -1.7519    0.0000 H   0  0  0  0  0  0  0  0  0  0  0  0
   -1.0141   -1.1662    0.0000 H   0  0  0  0  0  0  0  0  0  0  0  0
   -0.5172   -1.6332    0.0000 H   0  0  0  0  0  0  0  0  0  0  0  0
   -0.0763   -0.0461    0.0000 H   0  0  0  0  0  0  0  0  0  0  0  0
   -0.3204   -2.2103    0.0000 H   0  0  0  0  0  0  0  0  0  0  0  0
    0.3250   -2.3263    0.0000 H   0  0  0  0  0  0  0  0  0  0  0  0
    0.9366   -1.3232    0.0000 H   0  0  0  0  0  0  0  0  0  0  0  0
   -4.0576    1.1512    0.0000 H   0  0  0  0  0  0  0  0  0  0  0  0
   -4.7981    1.1512    0.0000 H   0  0  0  0  0  0  0  0  0  0  0  0
   -6.2693    0.3034    0.0000 H   0  0  0  0  0  0  0  0  0  0  0  0
   -6.5713   -0.8235    0.0000 H   0  0  0  0  0  0  0  0  0  0  0  0
   -5.4443   -1.1255    0.0000 H   0  0  0  0  0  0  0  0  0  0  0  0
   -5.3404    1.5126    0.0000 H   0  0  0  0  0  0  0  0  0  0  0  0
   -5.9668    1.4307    0.0000 H   0  0  0  0  0  0  0  0  0  0  0  0
   -6.3517    0.9298    0.0000 H   0  0  0  0  0  0  0  0  0  0  0  0
   -3.9546   -0.4309    0.0000 H   0  0  0  0  0  0  0  0  0  0  0  0
   -4.4477    0.0622    0.0000 H   0  0  0  0  0  0  0  0  0  0  0  0
   -4.7299   -1.5380    0.0000 H   0  0  0  0  0  0  0  0  0  0  0  0
  1  2  1  0  0  0  0
  2  3  1  0  0  0  0
  3  4  1  0  0  0  0
  4  5  2  0  0  0  0
  4  6  1  0  0  0  0
  6  7  1  0  0  0  0
  7  8  1  0  0  0  0
  8  9  1  0  0  0  0
 10  9  1  0  0  0  0
 11 10  1  0  0  0  0
 12 11  1  0  0  0  0
 13 12  1  0  0  0  0
 14 13  1  0  0  0  0
 14 15  1  0  0  0  0
 14 16  1  0  0  0  0
 12 17  1  0  0  0  0
 17 18  1  0  0  0  0
 18 19  2  0  0  0  0
 18 20  1  0  0  0  0
 20 21  1  0  0  0  0
 21 22  1  0  0  0  0
 21 23  1  0  0  0  0
 23 24  1  0  0  0  0
 24 25  1  0  0  0  0
 24 26  1  0  0  0  0
 24 27  1  0  0  0  0
 10 28  1  0  0  0  0
 10 29  1  0  0  0  0
  2 30  1  0  0  0  0
 30 31  1  0  0  0  0
 31 32  1  0  0  0  0
 31 33  1  0  0  0  0
 31 34  1  0  0  0  0
  9 14  1  0  0  0  0
  1 35  1  0  0  0  0
  1 36  1  0  0  0  0
  1 37  1  0  0  0  0
  2 38  1  0  0  0  0
  3 39  1  0  0  0  0
  3 40  1  0  0  0  0
  7 41  1  0  0  0  0
  7 42  1  0  0  0  0
  8 43  1  0  0  0  0
  8 44  1  0  0  0  0
 11 45  1  0  0  0  0
 11 46  1  0  0  0  0
 12 47  1  0  0  0  0
 13 48  1  0  0  0  0
 13 49  1  0  0  0  0
 15 50  1  0  0  0  0
 15 51  1  0  0  0  0
 15 52  1  0  0  0  0
 16 53  1  0  0  0  0
 16 54  1  0  0  0  0
 16 55  1  0  0  0  0
 20 56  1  0  0  0  0
 20 57  1  0  0  0  0
 21 58  1  0  0  0  0
 22 59  1  0  0  0  0
 22 60  1  0  0  0  0
 22 61  1  0  0  0  0
 23 62  1  0  0  0  0
 23 63  1  0  0  0  0
 25 64  1  0  0  0  0
 25 65  1  0  0  0  0
 25 66  1  0  0  0  0
 26 67  1  0  0  0  0
 26 68  1  0  0  0  0
 26 69  1  0  0  0  0
 27 70  1  0  0  0  0
 27 71  1  0  0  0  0
 27 72  1  0  0  0  0
 28 73  1  0  0  0  0
 28 74  1  0  0  0  0
 28 75  1  0  0  0  0
 29 76  1  0  0  0  0
 29 77  1  0  0  0  0
 29 78  1  0  0  0  0
 30 79  1  0  0  0  0
 30 80  1  0  0  0  0
 32 81  1  0  0  0  0
 32 82  1  0  0  0  0
 32 83  1  0  0  0  0
 33 84  1  0  0  0  0
 33 85  1  0  0  0  0
 33 86  1  0  0  0  0
 34 87  1  0  0  0  0
 34 88  1  0  0  0  0
 34 89  1  0  0  0  0
M  END
>  <id_input>
316

>  <InChIKey>
HAFKWVXPFIPBEJ-UHFFFAOYSA-N

>  <substance_name>
-

>  <casrn>
1445870-18-7

>  <Molecular weight>
481.7513122558594

>  <guideline>
OECD Guideline 404 (Acute Dermal Irritation / Corrosion)

>  <species>
rabbit

>  <type_of_coverage>
semiocclusive

>  <max_duration(hrs)>
4.0

>  <vehicle>
unchanged (no vehicle)

>  <edema/ erythema score>
2.0

>  <max_score>
4.0

>  <reversibility>
0.0

>  <Outcome>
1

>  <StandardizerResult>
Remove Explicit Hydrogens (ID: RemoveExplicitH)
Clear Stereo (ID: ClearStereo)
Wedge Clean (ID: WedgeClean)
Mesomerize (ID: Mesomerize)
Tautomerize (ID: Tautomerize)
Add Explicit Hydrogens (ID: AddExplicitH)
Neutralize (ID: Neutralize)
Clean 2D (ID: Clean2D)


$$$$

  Mrv1812 02121911042D          

 24 26  0  0  0  0            999 V2000
    0.6036   -0.0179    0.0000 C   0  0  0  0  0  0  0  0  0  0  0  0
    0.6036   -0.8429    0.0000 C   0  0  0  0  0  0  0  0  0  0  0  0
   -0.1109   -1.2554    0.0000 C   0  0  0  0  0  0  0  0  0  0  0  0
   -0.3171   -0.4304    0.0000 C   0  0  0  0  0  0  0  0  0  0  0  0
   -0.1109    0.3946    0.0000 C   0  0  0  0  0  0  0  0  0  0  0  0
   -0.8254   -0.0179    0.0000 C   0  0  0  0  0  0  0  0  0  0  0  0
   -1.6100    0.2370    0.0000 C   0  0  0  0  0  0  0  0  0  0  0  0
   -2.0949   -0.4304    0.0000 C   0  0  0  0  0  0  0  0  0  0  0  0
   -1.6100   -1.0979    0.0000 C   0  0  0  0  0  0  0  0  0  0  0  0
   -0.8254   -0.8429    0.0000 C   0  0  0  0  0  0  0  0  0  0  0  0
    1.4272    0.0301    0.0000 H   0  0  0  0  0  0  0  0  0  0  0  0
    1.0569    0.6714    0.0000 H   0  0  0  0  0  0  0  0  0  0  0  0
    1.0569   -1.5322    0.0000 H   0  0  0  0  0  0  0  0  0  0  0  0
    1.4272   -0.8909    0.0000 H   0  0  0  0  0  0  0  0  0  0  0  0
   -0.1109   -2.0804    0.0000 H   0  0  0  0  0  0  0  0  0  0  0  0
    0.4286   -0.7833    0.0000 H   0  0  0  0  0  0  0  0  0  0  0  0
    0.4286   -0.0776    0.0000 H   0  0  0  0  0  0  0  0  0  0  0  0
   -0.1109    1.2196    0.0000 H   0  0  0  0  0  0  0  0  0  0  0  0
   -0.9116    0.8026    0.0000 H   0  0  0  0  0  0  0  0  0  0  0  0
   -1.9565    0.9857    0.0000 H   0  0  0  0  0  0  0  0  0  0  0  0
   -2.3758    0.5438    0.0000 H   0  0  0  0  0  0  0  0  0  0  0  0
   -2.9199   -0.4304    0.0000 H   0  0  0  0  0  0  0  0  0  0  0  0
   -1.8649   -1.8825    0.0000 H   0  0  0  0  0  0  0  0  0  0  0  0
   -0.9116   -1.6634    0.0000 H   0  0  0  0  0  0  0  0  0  0  0  0
  2  1  1  0  0  0  0
  3  2  1  0  0  0  0
  3  4  1  0  0  0  0
  4  5  1  0  0  0  0
  5  6  1  0  0  0  0
  7  6  1  0  0  0  0
  8  7  1  0  0  0  0
  9  8  2  0  0  0  0
 10  9  1  0  0  0  0
  1  5  1  0  0  0  0
 10  3  1  0  0  0  0
  6 10  1  0  0  0  0
  1 11  1  0  0  0  0
  1 12  1  0  0  0  0
  2 13  1  0  0  0  0
  2 14  1  0  0  0  0
  3 15  1  0  0  0  0
  4 16  1  0  0  0  0
  4 17  1  0  0  0  0
  5 18  1  0  0  0  0
  6 19  1  0  0  0  0
  7 20  1  0  0  0  0
  7 21  1  0  0  0  0
  8 22  1  0  0  0  0
  9 23  1  0  0  0  0
 10 24  1  0  0  0  0
M  END
>  <id_input>
5111

>  <InChIKey>
HANKSFAYJLDDKP-UHFFFAOYSA-N

>  <substance_name>
tricyclo[5.2.1.0????,??????]dec-3-ene

>  <casrn>
4488-57-7

>  <Molecular weight>
134.21817016601562

>  <species>
rabbit

>  <type_of_coverage>
semiocclusive

>  <max_duration(hrs)>
24.0

>  <vehicle>
unchanged (no vehicle)

>  <edema/ erythema score>
3.7

>  <max_score>
4.0

>  <reversibility>
0.0

>  <Outcome>
1

>  <StandardizerResult>
Remove Explicit Hydrogens (ID: RemoveExplicitH)
Clear Stereo (ID: ClearStereo)
Wedge Clean (ID: WedgeClean)
Mesomerize (ID: Mesomerize)
Tautomerize (ID: Tautomerize)
Add Explicit Hydrogens (ID: AddExplicitH)
Neutralize (ID: Neutralize)
Clean 2D (ID: Clean2D)


$$$$

  Mrv1812 02121911042D          

 24 25  0  0  0  0            999 V2000
    1.1834    1.5760    0.0000 Cl  0  0  0  0  0  0  0  0  0  0  0  0
    0.4689    1.1635    0.0000 C   0  0  0  0  0  0  0  0  0  0  0  0
   -0.2456    1.5760    0.0000 C   0  0  0  0  0  0  0  0  0  0  0  0
   -0.9600    1.1635    0.0000 C   0  0  0  0  0  0  0  0  0  0  0  0
   -0.9600    0.3385    0.0000 C   0  0  0  0  0  0  0  0  0  0  0  0
   -0.2456   -0.0740    0.0000 C   0  0  0  0  0  0  0  0  0  0  0  0
   -0.2456   -0.8990    0.0000 Cl  0  0  0  0  0  0  0  0  0  0  0  0
    0.4689    0.3385    0.0000 C   0  0  0  0  0  0  0  0  0  0  0  0
    1.1834   -0.0740    0.0000 N   0  0  0  0  0  0  0  0  0  0  0  0
    1.8979    0.3385    0.0000 C   0  0  0  0  0  0  0  0  0  0  0  0
    2.6123   -0.0740    0.0000 C   0  0  0  0  0  0  0  0  0  0  0  0
    3.3268    0.3385    0.0000 C   0  0  0  0  0  0  0  0  0  0  0  0
    3.3268    1.1635    0.0000 C   0  0  0  0  0  0  0  0  0  0  0  0
    2.6123    1.5760    0.0000 C   0  0  0  0  0  0  0  0  0  0  0  0
    1.8979    1.1635    0.0000 C   0  0  0  0  0  0  0  0  0  0  0  0
   -0.2456    2.4010    0.0000 H   0  0  0  0  0  0  0  0  0  0  0  0
   -1.6745    1.5760    0.0000 H   0  0  0  0  0  0  0  0  0  0  0  0
   -1.6745   -0.0740    0.0000 H   0  0  0  0  0  0  0  0  0  0  0  0
    1.1834   -0.8990    0.0000 H   0  0  0  0  0  0  0  0  0  0  0  0
    2.6123   -0.8990    0.0000 H   0  0  0  0  0  0  0  0  0  0  0  0
    4.0413   -0.0740    0.0000 H   0  0  0  0  0  0  0  0  0  0  0  0
    4.0413    1.5760    0.0000 H   0  0  0  0  0  0  0  0  0  0  0  0
    2.6123    2.4010    0.0000 H   0  0  0  0  0  0  0  0  0  0  0  0
    1.8979    1.9885    0.0000 H   0  0  0  0  0  0  0  0  0  0  0  0
  1  2  1  0  0  0  0
  3  2  4  0  0  0  0
  4  3  4  0  0  0  0
  5  4  4  0  0  0  0
  6  5  4  0  0  0  0
  6  7  1  0  0  0  0
  8  6  4  0  0  0  0
  8  9  1  0  0  0  0
  9 10  1  0  0  0  0
 11 10  4  0  0  0  0
 12 11  4  0  0  0  0
 13 12  4  0  0  0  0
 14 13  4  0  0  0  0
 15 14  4  0  0  0  0
  2  8  4  0  0  0  0
 10 15  4  0  0  0  0
  3 16  1  0  0  0  0
  4 17  1  0  0  0  0
  5 18  1  0  0  0  0
  9 19  1  0  0  0  0
 11 20  1  0  0  0  0
 12 21  1  0  0  0  0
 13 22  1  0  0  0  0
 14 23  1  0  0  0  0
 15 24  1  0  0  0  0
M  END
>  <id_input>
2155

>  <InChIKey>
HDUUZPLYVVQTKN-UHFFFAOYSA-N

>  <substance_name>
2,6-dichloro-N-phenylaniline

>  <casrn>
15307-93-4

>  <Molecular weight>
238.11256408691406

>  <guideline>
EU Method B.4 (Acute Toxicity: Dermal Irritation / Corrosion)

>  <species>
rabbit

>  <type_of_coverage>
occlusive

>  <max_duration(hrs)>
24.0

>  <vehicle>
unchanged (no vehicle)

>  <edema/ erythema score>
1.55571428571428

>  <max_score>
4.0

>  <reversibility>
0.0

>  <Outcome>
1

>  <StandardizerResult>
Remove Explicit Hydrogens (ID: RemoveExplicitH)
Dearomatize (ID: Dearomatize)
Clear Stereo (ID: ClearStereo)
Wedge Clean (ID: WedgeClean)
Mesomerize (ID: Mesomerize)
Tautomerize (ID: Tautomerize)
Aromatize (ID: Aromatize)
Add Explicit Hydrogens (ID: AddExplicitH)
Neutralize (ID: Neutralize)
Clean 2D (ID: Clean2D)


$$$$

  Mrv1812 02121911042D          

 16 15  0  0  0  0            999 V2000
    0.0000   -0.0033    0.0000 C   0  0  0  0  0  0  0  0  0  0  0  0
    0.7145    0.4092    0.0000 C   0  0  0  0  0  0  0  0  0  0  0  0
    1.4290   -0.0033    0.0000 C   0  0  0  0  0  0  0  0  0  0  0  0
    2.1434    0.4092    0.0000 C   0  0  0  0  0  0  0  0  0  0  0  0
    2.8579   -0.0033    0.0000 C   0  0  0  0  0  0  0  0  0  0  0  0
    3.5724    0.4092    0.0000 O   0  0  0  0  0  0  0  0  0  0  0  0
   -0.4125    0.7112    0.0000 H   0  0  0  0  0  0  0  0  0  0  0  0
   -0.7145   -0.4158    0.0000 H   0  0  0  0  0  0  0  0  0  0  0  0
    0.4125   -0.7178    0.0000 H   0  0  0  0  0  0  0  0  0  0  0  0
    1.0847    1.1464    0.0000 H   0  0  0  0  0  0  0  0  0  0  0  0
    0.3442    1.1464    0.0000 H   0  0  0  0  0  0  0  0  0  0  0  0
    1.0587   -0.7405    0.0000 H   0  0  0  0  0  0  0  0  0  0  0  0
    1.7992   -0.7405    0.0000 H   0  0  0  0  0  0  0  0  0  0  0  0
    2.5137    1.1464    0.0000 H   0  0  0  0  0  0  0  0  0  0  0  0
    1.7732    1.1464    0.0000 H   0  0  0  0  0  0  0  0  0  0  0  0
    2.8579   -0.8283    0.0000 H   0  0  0  0  0  0  0  0  0  0  0  0
  1  2  1  0  0  0  0
  2  3  1  0  0  0  0
  3  4  1  0  0  0  0
  4  5  1  0  0  0  0
  5  6  2  0  0  0  0
  1  7  1  0  0  0  0
  1  8  1  0  0  0  0
  1  9  1  0  0  0  0
  2 10  1  0  0  0  0
  2 11  1  0  0  0  0
  3 12  1  0  0  0  0
  3 13  1  0  0  0  0
  4 14  1  0  0  0  0
  4 15  1  0  0  0  0
  5 16  1  0  0  0  0
M  END
>  <id_input>
6143

>  <InChIKey>
HGBOYTHUEUWSSQ-UHFFFAOYSA-N

>  <substance_name>
valeraldehyde

>  <casrn>
110-62-3

>  <Molecular weight>
86.1323013305664

>  <guideline>
OECD Guideline 404 (Acute Dermal Irritation / Corrosion)

>  <species>
rabbit

>  <type_of_coverage>
semiocclusive

>  <max_duration(hrs)>
4.0

>  <vehicle>
unchanged (no vehicle)

>  <edema/ erythema score>
1.77

>  <max_score>
4.0

>  <reversibility>
0.0

>  <Outcome>
1

>  <StandardizerResult>
Remove Explicit Hydrogens (ID: RemoveExplicitH)
Clear Stereo (ID: ClearStereo)
Wedge Clean (ID: WedgeClean)
Mesomerize (ID: Mesomerize)
Tautomerize (ID: Tautomerize)
Add Explicit Hydrogens (ID: AddExplicitH)
Neutralize (ID: Neutralize)
Clean 2D (ID: Clean2D)


$$$$

  Mrv1812 02121911042D          

 39 39  0  0  0  0            999 V2000
    2.9269   -0.1752    0.0000 C   0  0  0  0  0  0  0  0  0  0  0  0
    2.3966   -0.8071    0.0000 C   0  0  0  0  0  0  0  0  0  0  0  0
    1.5841   -0.6639    0.0000 C   0  0  0  0  0  0  0  0  0  0  0  0
    1.3020    0.1114    0.0000 C   0  0  0  0  0  0  0  0  0  0  0  0
    1.8323    0.7433    0.0000 C   0  0  0  0  0  0  0  0  0  0  0  0
    1.0538   -1.2959    0.0000 C   0  0  0  0  0  0  0  0  0  0  0  0
    0.2414   -1.1526    0.0000 C   0  0  0  0  0  0  0  0  0  0  0  0
   -0.4731   -0.7401    0.0000 C   0  0  0  0  0  0  0  0  0  0  0  0
   -1.1876   -1.1526    0.0000 C   0  0  0  0  0  0  0  0  0  0  0  0
   -1.1876   -1.9776    0.0000 C   0  0  0  0  0  0  0  0  0  0  0  0
   -0.4731   -2.3901    0.0000 C   0  0  0  0  0  0  0  0  0  0  0  0
    0.2414   -1.9776    0.0000 C   0  0  0  0  0  0  0  0  0  0  0  0
    0.5235   -0.3774    0.0000 C   0  0  0  0  0  0  0  0  0  0  0  0
    3.5589   -0.7055    0.0000 H   0  0  0  0  0  0  0  0  0  0  0  0
    3.4572    0.4568    0.0000 H   0  0  0  0  0  0  0  0  0  0  0  0
    2.2949    0.3551    0.0000 H   0  0  0  0  0  0  0  0  0  0  0  0
    2.3008   -1.6266    0.0000 H   0  0  0  0  0  0  0  0  0  0  0  0
    2.9967   -1.3733    0.0000 H   0  0  0  0  0  0  0  0  0  0  0  0
    2.1144   -0.0319    0.0000 H   0  0  0  0  0  0  0  0  0  0  0  0
    1.1018    0.9117    0.0000 H   0  0  0  0  0  0  0  0  0  0  0  0
    0.5366    0.4193    0.0000 H   0  0  0  0  0  0  0  0  0  0  0  0
    2.6400    0.9114    0.0000 H   0  0  0  0  0  0  0  0  0  0  0  0
    2.2002    1.4817    0.0000 H   0  0  0  0  0  0  0  0  0  0  0  0
    1.4801    1.4894    0.0000 H   0  0  0  0  0  0  0  0  0  0  0  0
    0.9580   -2.1153    0.0000 H   0  0  0  0  0  0  0  0  0  0  0  0
    1.6539   -1.8620    0.0000 H   0  0  0  0  0  0  0  0  0  0  0  0
   -0.1029   -0.0029    0.0000 H   0  0  0  0  0  0  0  0  0  0  0  0
   -0.8434   -0.0029    0.0000 H   0  0  0  0  0  0  0  0  0  0  0  0
   -1.6409   -0.4633    0.0000 H   0  0  0  0  0  0  0  0  0  0  0  0
   -2.0112   -1.1046    0.0000 H   0  0  0  0  0  0  0  0  0  0  0  0
   -2.0112   -2.0256    0.0000 H   0  0  0  0  0  0  0  0  0  0  0  0
   -1.6409   -2.6669    0.0000 H   0  0  0  0  0  0  0  0  0  0  0  0
   -0.8434   -3.1274    0.0000 H   0  0  0  0  0  0  0  0  0  0  0  0
   -0.1029   -3.1274    0.0000 H   0  0  0  0  0  0  0  0  0  0  0  0
    0.3784   -2.7911    0.0000 H   0  0  0  0  0  0  0  0  0  0  0  0
   -0.4731   -1.5651    0.0000 H   0  0  0  0  0  0  0  0  0  0  0  0
    0.9029   -1.1100    0.0000 H   0  0  0  0  0  0  0  0  0  0  0  0
    1.3195   -0.5944    0.0000 H   0  0  0  0  0  0  0  0  0  0  0  0
   -0.2539   -0.6536    0.0000 H   0  0  0  0  0  0  0  0  0  0  0  0
  1  2  1  0  0  0  0
  2  3  1  0  0  0  0
  3  4  1  0  0  0  0
  4  5  1  0  0  0  0
  3  6  1  0  0  0  0
  6  7  1  0  0  0  0
  8  7  1  0  0  0  0
  9  8  1  0  0  0  0
 10  9  1  0  0  0  0
 11 10  1  0  0  0  0
 12 11  1  0  0  0  0
  7 13  1  0  0  0  0
  7 12  1  0  0  0  0
  1 14  1  0  0  0  0
  1 15  1  0  0  0  0
  1 16  1  0  0  0  0
  2 17  1  0  0  0  0
  2 18  1  0  0  0  0
  3 19  1  0  0  0  0
  4 20  1  0  0  0  0
  4 21  1  0  0  0  0
  5 22  1  0  0  0  0
  5 23  1  0  0  0  0
  5 24  1  0  0  0  0
  6 25  1  0  0  0  0
  6 26  1  0  0  0  0
  8 27  1  0  0  0  0
  8 28  1  0  0  0  0
  9 29  1  0  0  0  0
  9 30  1  0  0  0  0
 10 31  1  0  0  0  0
 10 32  1  0  0  0  0
 11 33  1  0  0  0  0
 11 34  1  0  0  0  0
 12 35  1  0  0  0  0
 12 36  1  0  0  0  0
 13 37  1  0  0  0  0
 13 38  1  0  0  0  0
 13 39  1  0  0  0  0
M  END
>  <id_input>
1834

>  <InChIKey>
HIJMYZPXTIYZKV-UHFFFAOYSA-N

>  <substance_name>
1-(2-ethylbutyl)cyclohexane-1-carbonitrile

>  <casrn>
855425-38-6

>  <Molecular weight>
182.34555053710938

>  <guideline>
OECD Guideline 404 (Acute Dermal Irritation / Corrosion)

>  <species>
rabbit

>  <type_of_coverage>
semiocclusive

>  <max_duration(hrs)>
4.0

>  <vehicle>
unchanged (no vehicle)

>  <edema/ erythema score>
3.0

>  <reversibility>
0.0

>  <Outcome>
1

>  <StandardizerResult>
Remove Explicit Hydrogens (ID: RemoveExplicitH)
Clear Stereo (ID: ClearStereo)
Wedge Clean (ID: WedgeClean)
Mesomerize (ID: Mesomerize)
Tautomerize (ID: Tautomerize)
Add Explicit Hydrogens (ID: AddExplicitH)
Neutralize (ID: Neutralize)
Clean 2D (ID: Clean2D)


$$$$

  Mrv1812 02121911042D          

 33 33  0  0  0  0            999 V2000
   -2.0362   -2.0199    0.0000 C   0  0  0  0  0  0  0  0  0  0  0  0
   -1.3217   -1.6074    0.0000 C   0  0  0  0  0  0  0  0  0  0  0  0
   -0.6073   -2.0199    0.0000 C   0  0  0  0  0  0  0  0  0  0  0  0
    0.1072   -1.6074    0.0000 C   0  0  0  0  0  0  0  0  0  0  0  0
    0.8217   -2.0199    0.0000 C   0  0  0  0  0  0  0  0  0  0  0  0
    1.5361   -1.6074    0.0000 C   0  0  0  0  0  0  0  0  0  0  0  0
    2.2506   -2.0199    0.0000 C   0  0  0  0  0  0  0  0  0  0  0  0
    2.9651   -1.6074    0.0000 C   0  0  0  0  0  0  0  0  0  0  0  0
    3.6796   -2.0199    0.0000 C   0  0  0  0  0  0  0  0  0  0  0  0
    4.3940   -1.6074    0.0000 C   0  0  0  0  0  0  0  0  0  0  0  0
    4.3940   -0.7824    0.0000 C   0  0  0  0  0  0  0  0  0  0  0  0
    3.6796   -0.3699    0.0000 C   0  0  0  0  0  0  0  0  0  0  0  0
    2.9651   -0.7824    0.0000 C   0  0  0  0  0  0  0  0  0  0  0  0
    1.5361   -0.7824    0.0000 C   0  0  0  0  0  0  0  0  0  0  0  0
    2.2506   -0.3699    0.0000 O   0  0  0  0  0  0  0  0  0  0  0  0
   -2.4487   -1.3054    0.0000 H   0  0  0  0  0  0  0  0  0  0  0  0
   -2.7507   -2.4324    0.0000 H   0  0  0  0  0  0  0  0  0  0  0  0
   -1.6237   -2.7343    0.0000 H   0  0  0  0  0  0  0  0  0  0  0  0
   -0.9515   -0.8701    0.0000 H   0  0  0  0  0  0  0  0  0  0  0  0
   -1.6920   -0.8701    0.0000 H   0  0  0  0  0  0  0  0  0  0  0  0
   -0.9775   -2.7571    0.0000 H   0  0  0  0  0  0  0  0  0  0  0  0
   -0.2370   -2.7571    0.0000 H   0  0  0  0  0  0  0  0  0  0  0  0
    0.4775   -0.8701    0.0000 H   0  0  0  0  0  0  0  0  0  0  0  0
   -0.2631   -0.8701    0.0000 H   0  0  0  0  0  0  0  0  0  0  0  0
    0.4514   -2.7571    0.0000 H   0  0  0  0  0  0  0  0  0  0  0  0
    1.1919   -2.7571    0.0000 H   0  0  0  0  0  0  0  0  0  0  0  0
    2.2506   -2.8449    0.0000 H   0  0  0  0  0  0  0  0  0  0  0  0
    3.6796   -2.8449    0.0000 H   0  0  0  0  0  0  0  0  0  0  0  0
    5.1085   -2.0199    0.0000 H   0  0  0  0  0  0  0  0  0  0  0  0
    5.1085   -0.3699    0.0000 H   0  0  0  0  0  0  0  0  0  0  0  0
    3.6796    0.4551    0.0000 H   0  0  0  0  0  0  0  0  0  0  0  0
    2.9651    0.0426    0.0000 H   0  0  0  0  0  0  0  0  0  0  0  0
    0.8217   -0.3699    0.0000 H   0  0  0  0  0  0  0  0  0  0  0  0
  1  2  1  0  0  0  0
  2  3  1  0  0  0  0
  3  4  1  0  0  0  0
  4  5  1  0  0  0  0
  5  6  1  0  0  0  0
  6  7  2  0  0  0  0
  7  8  1  4  0  0  0
  9  8  4  0  0  0  0
 10  9  4  0  0  0  0
 11 10  4  0  0  0  0
 12 11  4  0  0  0  0
 13 12  4  0  0  0  0
  6 14  1  0  0  0  0
 14 15  2  0  0  0  0
  8 13  4  0  0  0  0
  1 16  1  0  0  0  0
  1 17  1  0  0  0  0
  1 18  1  0  0  0  0
  2 19  1  0  0  0  0
  2 20  1  0  0  0  0
  3 21  1  0  0  0  0
  3 22  1  0  0  0  0
  4 23  1  0  0  0  0
  4 24  1  0  0  0  0
  5 25  1  0  0  0  0
  5 26  1  0  0  0  0
  7 27  1  0  0  0  0
  9 28  1  0  0  0  0
 10 29  1  0  0  0  0
 11 30  1  0  0  0  0
 12 31  1  0  0  0  0
 13 32  1  0  0  0  0
 14 33  1  0  0  0  0
M  END
>  <id_input>
5506

>  <InChIKey>
HMKKIXGYKWDQSV-UHFFFAOYSA-N

>  <substance_name>
unnamed [78605-96-6]

>  <casrn>
78605-96-6

>  <Molecular weight>
202.29212951660156

>  <guideline>
EU Method B.4 (Acute Toxicity: Dermal Irritation / Corrosion)

>  <species>
rabbit

>  <type_of_coverage>
semiocclusive

>  <max_duration(hrs)>
4.0

>  <vehicle>
unchanged (no vehicle)

>  <edema/ erythema score>
2.0

>  <max_score>
4.0

>  <reversibility>
0.0

>  <Outcome>
1

>  <StandardizerResult>
Remove Explicit Hydrogens (ID: RemoveExplicitH)
Dearomatize (ID: Dearomatize)
Clear Stereo (ID: ClearStereo)
Wedge Clean (ID: WedgeClean)
Mesomerize (ID: Mesomerize)
Tautomerize (ID: Tautomerize)
Aromatize (ID: Aromatize)
Add Explicit Hydrogens (ID: AddExplicitH)
Neutralize (ID: Neutralize)
Clean 2D (ID: Clean2D)


$$$$

  Mrv1812 02121911042D          

 39 38  0  0  0  0            999 V2000
    0.0030   -0.0195    0.0000 C   0  0  0  0  0  0  0  0  0  0  0  0
    0.7174    0.3930    0.0000 C   0  0  0  0  0  0  0  0  0  0  0  0
    1.4319   -0.0195    0.0000 C   0  0  0  0  0  0  0  0  0  0  0  0
    2.1464    0.3930    0.0000 C   0  0  0  0  0  0  0  0  0  0  0  0
    2.8608   -0.0195    0.0000 C   0  0  0  0  0  0  0  0  0  0  0  0
    3.5753    0.3930    0.0000 C   0  0  0  0  0  0  0  0  0  0  0  0
    4.2898   -0.0195    0.0000 C   0  0  0  0  0  0  0  0  0  0  0  0
    5.0043    0.3930    0.0000 C   0  0  0  0  0  0  0  0  0  0  0  0
    5.7187   -0.0195    0.0000 C   0  0  0  0  0  0  0  0  0  0  0  0
    6.4332    0.3930    0.0000 C   0  0  0  0  0  0  0  0  0  0  0  0
    6.4332    1.2180    0.0000 O   0  0  0  0  0  0  0  0  0  0  0  0
    7.1477   -0.0195    0.0000 N   0  0  0  0  0  0  0  0  0  0  0  0
    7.8621    0.3930    0.0000 C   0  0  0  0  0  0  0  0  0  0  0  0
    7.1477   -0.8445    0.0000 C   0  0  0  0  0  0  0  0  0  0  0  0
   -0.4095    0.6949    0.0000 H   0  0  0  0  0  0  0  0  0  0  0  0
   -0.7115   -0.4320    0.0000 H   0  0  0  0  0  0  0  0  0  0  0  0
    0.4155   -0.7340    0.0000 H   0  0  0  0  0  0  0  0  0  0  0  0
    1.0877    1.1302    0.0000 H   0  0  0  0  0  0  0  0  0  0  0  0
    0.3472    1.1302    0.0000 H   0  0  0  0  0  0  0  0  0  0  0  0
    1.0616   -0.7568    0.0000 H   0  0  0  0  0  0  0  0  0  0  0  0
    1.8022   -0.7568    0.0000 H   0  0  0  0  0  0  0  0  0  0  0  0
    2.5166    1.1302    0.0000 H   0  0  0  0  0  0  0  0  0  0  0  0
    1.7761    1.1302    0.0000 H   0  0  0  0  0  0  0  0  0  0  0  0
    2.4906   -0.7568    0.0000 H   0  0  0  0  0  0  0  0  0  0  0  0
    3.2311   -0.7568    0.0000 H   0  0  0  0  0  0  0  0  0  0  0  0
    3.9456    1.1302    0.0000 H   0  0  0  0  0  0  0  0  0  0  0  0
    3.2051    1.1302    0.0000 H   0  0  0  0  0  0  0  0  0  0  0  0
    3.9195   -0.7568    0.0000 H   0  0  0  0  0  0  0  0  0  0  0  0
    4.6600   -0.7568    0.0000 H   0  0  0  0  0  0  0  0  0  0  0  0
    5.3745    1.1302    0.0000 H   0  0  0  0  0  0  0  0  0  0  0  0
    4.6340    1.1302    0.0000 H   0  0  0  0  0  0  0  0  0  0  0  0
    5.3485   -0.7568    0.0000 H   0  0  0  0  0  0  0  0  0  0  0  0
    6.0890   -0.7568    0.0000 H   0  0  0  0  0  0  0  0  0  0  0  0
    8.2746   -0.3215    0.0000 H   0  0  0  0  0  0  0  0  0  0  0  0
    8.5766    0.8055    0.0000 H   0  0  0  0  0  0  0  0  0  0  0  0
    7.4496    1.1074    0.0000 H   0  0  0  0  0  0  0  0  0  0  0  0
    6.3227   -0.8445    0.0000 H   0  0  0  0  0  0  0  0  0  0  0  0
    7.1477   -1.6695    0.0000 H   0  0  0  0  0  0  0  0  0  0  0  0
    7.9727   -0.8445    0.0000 H   0  0  0  0  0  0  0  0  0  0  0  0
  1  2  1  0  0  0  0
  2  3  1  0  0  0  0
  3  4  1  0  0  0  0
  4  5  1  0  0  0  0
  5  6  1  0  0  0  0
  6  7  1  0  0  0  0
  7  8  1  0  0  0  0
  8  9  1  0  0  0  0
  9 10  1  0  0  0  0
 10 11  2  0  0  0  0
 10 12  1  0  0  0  0
 12 13  1  0  0  0  0
 12 14  1  0  0  0  0
  1 15  1  0  0  0  0
  1 16  1  0  0  0  0
  1 17  1  0  0  0  0
  2 18  1  0  0  0  0
  2 19  1  0  0  0  0
  3 20  1  0  0  0  0
  3 21  1  0  0  0  0
  4 22  1  0  0  0  0
  4 23  1  0  0  0  0
  5 24  1  0  0  0  0
  5 25  1  0  0  0  0
  6 26  1  0  0  0  0
  6 27  1  0  0  0  0
  7 28  1  0  0  0  0
  7 29  1  0  0  0  0
  8 30  1  0  0  0  0
  8 31  1  0  0  0  0
  9 32  1  0  0  0  0
  9 33  1  0  0  0  0
 13 34  1  0  0  0  0
 13 35  1  0  0  0  0
 13 36  1  0  0  0  0
 14 37  1  0  0  0  0
 14 38  1  0  0  0  0
 14 39  1  0  0  0  0
M  END
>  <id_input>
3411

>  <InChIKey>
HNXNKTMIVROLTK-UHFFFAOYSA-N

>  <substance_name>
N,N-dimethyldecanamide

>  <casrn>
14433-76-2

>  <Molecular weight>
199.3330078125

>  <guideline>
OECD Guideline 404 (Acute Dermal Irritation / Corrosion)

>  <species>
rabbit

>  <type_of_coverage>
semiocclusive

>  <max_duration(hrs)>
4.0

>  <vehicle>
unchanged (no vehicle)

>  <edema/ erythema score>
2.8

>  <max_score>
4.0

>  <reversibility>
0.0

>  <Outcome>
1

>  <StandardizerResult>
Remove Explicit Hydrogens (ID: RemoveExplicitH)
Clear Stereo (ID: ClearStereo)
Wedge Clean (ID: WedgeClean)
Mesomerize (ID: Mesomerize)
Tautomerize (ID: Tautomerize)
Add Explicit Hydrogens (ID: AddExplicitH)
Neutralize (ID: Neutralize)
Clean 2D (ID: Clean2D)


$$$$

  Mrv1812 02121911042D          

 16 15  0  0  0  0            999 V2000
    2.4010   -0.6467    0.0000 C   0  0  0  0  0  0  0  0  0  0  0  0
    1.9885    0.0678    0.0000 C   0  0  0  0  0  0  0  0  0  0  0  0
    1.1635    0.0678    0.0000 C   0  0  0  0  0  0  0  0  0  0  0  0
    0.7510    0.7822    0.0000 C   0  0  0  0  0  0  0  0  0  0  0  0
   -0.0740    0.7822    0.0000 N   0  0  0  0  0  0  0  0  0  0  0  0
    1.6866   -1.0592    0.0000 H   0  0  0  0  0  0  0  0  0  0  0  0
    2.8135   -1.3612    0.0000 H   0  0  0  0  0  0  0  0  0  0  0  0
    3.1155   -0.2342    0.0000 H   0  0  0  0  0  0  0  0  0  0  0  0
    2.6778    0.5211    0.0000 H   0  0  0  0  0  0  0  0  0  0  0  0
    2.0365    0.8914    0.0000 H   0  0  0  0  0  0  0  0  0  0  0  0
    0.4743   -0.3856    0.0000 H   0  0  0  0  0  0  0  0  0  0  0  0
    1.1156   -0.7558    0.0000 H   0  0  0  0  0  0  0  0  0  0  0  0
    1.4403    1.2356    0.0000 H   0  0  0  0  0  0  0  0  0  0  0  0
    0.7990    1.6059    0.0000 H   0  0  0  0  0  0  0  0  0  0  0  0
   -0.4865    1.4967    0.0000 H   0  0  0  0  0  0  0  0  0  0  0  0
   -0.4865    0.0678    0.0000 H   0  0  0  0  0  0  0  0  0  0  0  0
  1  2  1  0  0  0  0
  2  3  1  0  0  0  0
  3  4  1  0  0  0  0
  4  5  1  0  0  0  0
  1  6  1  0  0  0  0
  1  7  1  0  0  0  0
  1  8  1  0  0  0  0
  2  9  1  0  0  0  0
  2 10  1  0  0  0  0
  3 11  1  0  0  0  0
  3 12  1  0  0  0  0
  4 13  1  0  0  0  0
  4 14  1  0  0  0  0
  5 15  1  0  0  0  0
  5 16  1  0  0  0  0
M  END
>  <id_input>
3948

>  <InChIKey>
HQABUPZFAYXKJW-UHFFFAOYSA-N

>  <substance_name>
butan-1-amine

>  <casrn>
109-73-9

>  <Molecular weight>
73.1368408203125

>  <species>
rabbit

>  <type_of_coverage>
semiocclusive

>  <max_duration(hrs)>
0.0166666666666666

>  <vehicle>
unchanged (no vehicle)

>  <edema/ erythema score>
4.0

>  <max_score>
4.0

>  <reversibility>
1.0

>  <Outcome>
1

>  <StandardizerResult>
Remove Explicit Hydrogens (ID: RemoveExplicitH)
Clear Stereo (ID: ClearStereo)
Wedge Clean (ID: WedgeClean)
Mesomerize (ID: Mesomerize)
Tautomerize (ID: Tautomerize)
Add Explicit Hydrogens (ID: AddExplicitH)
Neutralize (ID: Neutralize)
Clean 2D (ID: Clean2D)


$$$$

  Mrv1812 02121911042D          

 42 41  0  0  0  0            999 V2000
    0.4125   -0.2265    0.0000 C   0  0  0  0  0  0  0  0  0  0  0  0
    1.1270   -0.6390    0.0000 C   0  0  0  0  0  0  0  0  0  0  0  0
    1.8414   -0.2265    0.0000 C   0  0  0  0  0  0  0  0  0  0  0  0
    2.5559    0.1860    0.0000 C   0  0  0  0  0  0  0  0  0  0  0  0
    2.2539   -0.9410    0.0000 O   0  0  0  0  0  0  0  0  0  0  0  0
    1.8414   -1.6554    0.0000 O   0  0  0  0  0  0  0  0  0  0  0  0
    2.2539   -2.3699    0.0000 C   0  0  0  0  0  0  0  0  0  0  0  0
    2.6664   -3.0844    0.0000 C   0  0  0  0  0  0  0  0  0  0  0  0
    2.9684   -1.9574    0.0000 C   0  0  0  0  0  0  0  0  0  0  0  0
    1.5395   -2.7824    0.0000 C   0  0  0  0  0  0  0  0  0  0  0  0
    1.4289    0.4880    0.0000 O   0  0  0  0  0  0  0  0  0  0  0  0
    1.8414    1.2025    0.0000 O   0  0  0  0  0  0  0  0  0  0  0  0
    1.4289    1.9169    0.0000 C   0  0  0  0  0  0  0  0  0  0  0  0
    1.0164    2.6314    0.0000 C   0  0  0  0  0  0  0  0  0  0  0  0
    2.1434    2.3294    0.0000 C   0  0  0  0  0  0  0  0  0  0  0  0
    0.7145    1.5044    0.0000 C   0  0  0  0  0  0  0  0  0  0  0  0
    0.8250    0.4880    0.0000 H   0  0  0  0  0  0  0  0  0  0  0  0
   -0.3020    0.1860    0.0000 H   0  0  0  0  0  0  0  0  0  0  0  0
   -0.0000   -0.9410    0.0000 H   0  0  0  0  0  0  0  0  0  0  0  0
    0.7567   -1.3762    0.0000 H   0  0  0  0  0  0  0  0  0  0  0  0
    1.4972   -1.3762    0.0000 H   0  0  0  0  0  0  0  0  0  0  0  0
    2.9684   -0.5285    0.0000 H   0  0  0  0  0  0  0  0  0  0  0  0
    3.2704    0.5985    0.0000 H   0  0  0  0  0  0  0  0  0  0  0  0
    2.1434    0.9005    0.0000 H   0  0  0  0  0  0  0  0  0  0  0  0
    1.9520   -3.4969    0.0000 H   0  0  0  0  0  0  0  0  0  0  0  0
    3.0789   -3.7988    0.0000 H   0  0  0  0  0  0  0  0  0  0  0  0
    3.3809   -2.6719    0.0000 H   0  0  0  0  0  0  0  0  0  0  0  0
    3.7863   -1.8497    0.0000 H   0  0  0  0  0  0  0  0  0  0  0  0
    3.1819   -1.1605    0.0000 H   0  0  0  0  0  0  0  0  0  0  0  0
    2.3139   -1.4552    0.0000 H   0  0  0  0  0  0  0  0  0  0  0  0
    1.4318   -1.9645    0.0000 H   0  0  0  0  0  0  0  0  0  0  0  0
    0.7426   -2.5689    0.0000 H   0  0  0  0  0  0  0  0  0  0  0  0
    1.0372   -3.4369    0.0000 H   0  0  0  0  0  0  0  0  0  0  0  0
    1.7309    3.0439    0.0000 H   0  0  0  0  0  0  0  0  0  0  0  0
    0.6039    3.3459    0.0000 H   0  0  0  0  0  0  0  0  0  0  0  0
    0.3020    2.2189    0.0000 H   0  0  0  0  0  0  0  0  0  0  0  0
    2.2511    1.5115    0.0000 H   0  0  0  0  0  0  0  0  0  0  0  0
    2.9403    2.1159    0.0000 H   0  0  0  0  0  0  0  0  0  0  0  0
    2.6456    2.9839    0.0000 H   0  0  0  0  0  0  0  0  0  0  0  0
   -0.1035    1.3967    0.0000 H   0  0  0  0  0  0  0  0  0  0  0  0
    0.5009    0.7075    0.0000 H   0  0  0  0  0  0  0  0  0  0  0  0
    1.3690    1.0022    0.0000 H   0  0  0  0  0  0  0  0  0  0  0  0
  1  2  1  0  0  0  0
  2  3  1  0  0  0  0
  3  4  1  0  0  0  0
  3  5  1  0  0  0  0
  5  6  1  0  0  0  0
  6  7  1  0  0  0  0
  7  8  1  0  0  0  0
  7  9  1  0  0  0  0
  7 10  1  0  0  0  0
  3 11  1  0  0  0  0
 11 12  1  0  0  0  0
 12 13  1  0  0  0  0
 13 14  1  0  0  0  0
 13 15  1  0  0  0  0
 13 16  1  0  0  0  0
  1 17  1  0  0  0  0
  1 18  1  0  0  0  0
  1 19  1  0  0  0  0
  2 20  1  0  0  0  0
  2 21  1  0  0  0  0
  4 22  1  0  0  0  0
  4 23  1  0  0  0  0
  4 24  1  0  0  0  0
  8 25  1  0  0  0  0
  8 26  1  0  0  0  0
  8 27  1  0  0  0  0
  9 28  1  0  0  0  0
  9 29  1  0  0  0  0
  9 30  1  0  0  0  0
 10 31  1  0  0  0  0
 10 32  1  0  0  0  0
 10 33  1  0  0  0  0
 14 34  1  0  0  0  0
 14 35  1  0  0  0  0
 14 36  1  0  0  0  0
 15 37  1  0  0  0  0
 15 38  1  0  0  0  0
 15 39  1  0  0  0  0
 16 40  1  0  0  0  0
 16 41  1  0  0  0  0
 16 42  1  0  0  0  0
M  END
>  <id_input>
4103

>  <InChIKey>
HQOVXPHOJANJBR-UHFFFAOYSA-N

>  <substance_name>
di-tert-butyl sec-butylidene diperoxide

>  <casrn>
2167-23-9

>  <Molecular weight>
234.3324432373047

>  <guideline>
OECD Guideline 404 (Acute Dermal Irritation / Corrosion)

>  <species>
rabbit

>  <type_of_coverage>
semiocclusive

>  <max_duration(hrs)>
4.0

>  <vehicle>
unchanged (no vehicle)

>  <edema/ erythema score>
1.85

>  <max_score>
2.0

>  <reversibility>
0.0

>  <Outcome>
1

>  <StandardizerResult>
Remove Explicit Hydrogens (ID: RemoveExplicitH)
Clear Stereo (ID: ClearStereo)
Wedge Clean (ID: WedgeClean)
Mesomerize (ID: Mesomerize)
Tautomerize (ID: Tautomerize)
Add Explicit Hydrogens (ID: AddExplicitH)
Neutralize (ID: Neutralize)
Clean 2D (ID: Clean2D)


$$$$

  Mrv1812 02121911042D          

 11 11  0  0  0  0            999 V2000
    0.7963   -1.7927    0.0000 O   0  0  0  0  0  0  0  0  0  0  0  0
    1.1319   -1.0391    0.0000 C   0  0  0  0  0  0  0  0  0  0  0  0
    0.6470   -0.3716    0.0000 C   0  0  0  0  0  0  0  0  0  0  0  0
    0.9019    0.4130    0.0000 O   0  0  0  0  0  0  0  0  0  0  0  0
    0.2345    0.8979    0.0000 C   0  0  0  0  0  0  0  0  0  0  0  0
   -0.4330    0.4130    0.0000 C   0  0  0  0  0  0  0  0  0  0  0  0
   -0.1780   -0.3716    0.0000 C   0  0  0  0  0  0  0  0  0  0  0  0
    1.9524   -0.9528    0.0000 H   0  0  0  0  0  0  0  0  0  0  0  0
    0.2345    1.7229    0.0000 H   0  0  0  0  0  0  0  0  0  0  0  0
   -1.2176    0.6679    0.0000 H   0  0  0  0  0  0  0  0  0  0  0  0
   -0.6629   -1.0391    0.0000 H   0  0  0  0  0  0  0  0  0  0  0  0
  1  2  2  0  0  0  0
  2  3  1  0  0  0  0
  4  3  4  0  0  0  0
  5  4  4  0  0  0  0
  6  5  4  0  0  0  0
  7  6  4  0  0  0  0
  3  7  4  0  0  0  0
  2  8  1  0  0  0  0
  5  9  1  0  0  0  0
  6 10  1  0  0  0  0
  7 11  1  0  0  0  0
M  END
>  <id_input>
4370

>  <InChIKey>
HYBBIBNJHNGZAN-UHFFFAOYSA-N

>  <substance_name>
furan-2-carbaldehyde

>  <casrn>
98-01-1

>  <Molecular weight>
96.08406066894531

>  <guideline>
OECD Guideline 404 (Acute Dermal Irritation / Corrosion)

>  <species>
rabbit

>  <type_of_coverage>
semiocclusive

>  <max_duration(hrs)>
4.0

>  <vehicle>
unchanged (no vehicle)

>  <edema/ erythema score>
2.0

>  <max_score>
4.0

>  <reversibility>
0.0

>  <Outcome>
1

>  <StandardizerResult>
Remove Explicit Hydrogens (ID: RemoveExplicitH)
Dearomatize (ID: Dearomatize)
Clear Stereo (ID: ClearStereo)
Wedge Clean (ID: WedgeClean)
Mesomerize (ID: Mesomerize)
Tautomerize (ID: Tautomerize)
Aromatize (ID: Aromatize)
Add Explicit Hydrogens (ID: AddExplicitH)
Neutralize (ID: Neutralize)
Clean 2D (ID: Clean2D)


$$$$

  Mrv1812 02121911042D          

 37 37  0  0  0  0            999 V2000
    3.6022    0.0642    0.0000 C   0  0  0  0  0  0  0  0  0  0  0  0
    3.6022   -0.7608    0.0000 C   0  0  0  0  0  0  0  0  0  0  0  0
    2.8877   -1.1733    0.0000 C   0  0  0  0  0  0  0  0  0  0  0  0
    2.1733   -0.7608    0.0000 C   0  0  0  0  0  0  0  0  0  0  0  0
    1.4588   -1.1733    0.0000 C   0  0  0  0  0  0  0  0  0  0  0  0
    0.7443   -0.7608    0.0000 C   0  0  0  0  0  0  0  0  0  0  0  0
    0.7443    0.0642    0.0000 C   0  0  0  0  0  0  0  0  0  0  0  0
    0.0299    0.4767    0.0000 C   0  0  0  0  0  0  0  0  0  0  0  0
   -0.6846    0.0642    0.0000 C   0  0  0  0  0  0  0  0  0  0  0  0
   -0.6846   -0.7608    0.0000 C   0  0  0  0  0  0  0  0  0  0  0  0
    0.0299   -1.1733    0.0000 C   0  0  0  0  0  0  0  0  0  0  0  0
    4.3167   -1.1733    0.0000 C   0  0  0  0  0  0  0  0  0  0  0  0
    5.0312   -0.7608    0.0000 O   0  0  0  0  0  0  0  0  0  0  0  0
    4.4272    0.0642    0.0000 H   0  0  0  0  0  0  0  0  0  0  0  0
    3.6022    0.8892    0.0000 H   0  0  0  0  0  0  0  0  0  0  0  0
    2.7772    0.0642    0.0000 H   0  0  0  0  0  0  0  0  0  0  0  0
    2.8877   -0.3483    0.0000 H   0  0  0  0  0  0  0  0  0  0  0  0
    2.5175   -1.9106    0.0000 H   0  0  0  0  0  0  0  0  0  0  0  0
    3.2580   -1.9106    0.0000 H   0  0  0  0  0  0  0  0  0  0  0  0
    2.0300    0.0516    0.0000 H   0  0  0  0  0  0  0  0  0  0  0  0
    1.5413   -0.2305    0.0000 H   0  0  0  0  0  0  0  0  0  0  0  0
    1.0885   -1.9106    0.0000 H   0  0  0  0  0  0  0  0  0  0  0  0
    1.8291   -1.9106    0.0000 H   0  0  0  0  0  0  0  0  0  0  0  0
    0.7443   -1.5858    0.0000 H   0  0  0  0  0  0  0  0  0  0  0  0
    1.4078    0.5546    0.0000 H   0  0  0  0  0  0  0  0  0  0  0  0
    0.6978    0.8878    0.0000 H   0  0  0  0  0  0  0  0  0  0  0  0
    0.0143    1.3015    0.0000 H   0  0  0  0  0  0  0  0  0  0  0  0
   -0.6885    0.8824    0.0000 H   0  0  0  0  0  0  0  0  0  0  0  0
   -1.4004    0.4744    0.0000 H   0  0  0  0  0  0  0  0  0  0  0  0
   -1.3984   -0.3495    0.0000 H   0  0  0  0  0  0  0  0  0  0  0  0
   -1.3989   -1.1737    0.0000 H   0  0  0  0  0  0  0  0  0  0  0  0
   -0.6844   -1.5858    0.0000 H   0  0  0  0  0  0  0  0  0  0  0  0
    0.0299   -1.9983    0.0000 H   0  0  0  0  0  0  0  0  0  0  0  0
    0.0299   -0.3483    0.0000 H   0  0  0  0  0  0  0  0  0  0  0  0
    3.9464   -1.9106    0.0000 H   0  0  0  0  0  0  0  0  0  0  0  0
    4.6870   -1.9106    0.0000 H   0  0  0  0  0  0  0  0  0  0  0  0
    5.7456   -1.1733    0.0000 H   0  0  0  0  0  0  0  0  0  0  0  0
  1  2  1  0  0  0  0
  2  3  1  0  0  0  0
  3  4  1  0  0  0  0
  4  5  1  0  0  0  0
  5  6  1  0  0  0  0
  7  6  1  0  0  0  0
  8  7  1  0  0  0  0
  9  8  1  0  0  0  0
 10  9  1  0  0  0  0
 11 10  1  0  0  0  0
  2 12  1  0  0  0  0
 12 13  1  0  0  0  0
  6 11  1  0  0  0  0
  1 14  1  0  0  0  0
  1 15  1  0  0  0  0
  1 16  1  0  0  0  0
  2 17  1  0  0  0  0
  3 18  1  0  0  0  0
  3 19  1  0  0  0  0
  4 20  1  0  0  0  0
  4 21  1  0  0  0  0
  5 22  1  0  0  0  0
  5 23  1  0  0  0  0
  6 24  1  0  0  0  0
  7 25  1  0  0  0  0
  7 26  1  0  0  0  0
  8 27  1  0  0  0  0
  8 28  1  0  0  0  0
  9 29  1  0  0  0  0
  9 30  1  0  0  0  0
 10 31  1  0  0  0  0
 10 32  1  0  0  0  0
 11 33  1  0  0  0  0
 11 34  1  0  0  0  0
 12 35  1  0  0  0  0
 12 36  1  0  0  0  0
 13 37  1  0  0  0  0
M  END
>  <id_input>
993

>  <InChIKey>
IDGMBCFBOMJIMX-UHFFFAOYSA-N

>  <substance_name>
-

>  <casrn>
1141487-54-8

>  <Molecular weight>
184.318359375

>  <guideline>
OECD Guideline 404 (Acute Dermal Irritation / Corrosion)

>  <species>
rabbit

>  <type_of_coverage>
semiocclusive

>  <max_duration(hrs)>
4.0

>  <vehicle>
unchanged (no vehicle)

>  <edema/ erythema score>
2.0

>  <max_score>
4.0

>  <reversibility>
0.0

>  <Outcome>
1

>  <StandardizerResult>
Remove Explicit Hydrogens (ID: RemoveExplicitH)
Clear Stereo (ID: ClearStereo)
Wedge Clean (ID: WedgeClean)
Mesomerize (ID: Mesomerize)
Tautomerize (ID: Tautomerize)
Add Explicit Hydrogens (ID: AddExplicitH)
Neutralize (ID: Neutralize)
Clean 2D (ID: Clean2D)


$$$$

  Mrv1812 02121911042D          

 28 29  0  0  0  0            999 V2000
    0.6858    0.8197    0.0000 C   0  0  0  0  0  0  0  0  0  0  0  0
   -0.0287    1.2322    0.0000 C   0  0  0  0  0  0  0  0  0  0  0  0
   -0.7431    0.8197    0.0000 C   0  0  0  0  0  0  0  0  0  0  0  0
   -0.7431   -0.0053    0.0000 C   0  0  0  0  0  0  0  0  0  0  0  0
   -0.0287   -0.4178    0.0000 C   0  0  0  0  0  0  0  0  0  0  0  0
    0.6858   -0.0053    0.0000 C   0  0  0  0  0  0  0  0  0  0  0  0
   -1.4576   -0.4178    0.0000 C   0  0  0  0  0  0  0  0  0  0  0  0
   -2.1721   -0.0053    0.0000 C   0  0  0  0  0  0  0  0  0  0  0  0
   -2.8866   -0.4178    0.0000 C   0  0  0  0  0  0  0  0  0  0  0  0
   -2.8866   -1.2428    0.0000 C   0  0  0  0  0  0  0  0  0  0  0  0
   -2.1721   -1.6553    0.0000 C   0  0  0  0  0  0  0  0  0  0  0  0
   -1.4576   -1.2428    0.0000 C   0  0  0  0  0  0  0  0  0  0  0  0
    1.5094    0.8677    0.0000 H   0  0  0  0  0  0  0  0  0  0  0  0
    1.1391    1.5090    0.0000 H   0  0  0  0  0  0  0  0  0  0  0  0
    0.3416    1.9695    0.0000 H   0  0  0  0  0  0  0  0  0  0  0  0
   -0.3989    1.9695    0.0000 H   0  0  0  0  0  0  0  0  0  0  0  0
   -1.1965    1.5090    0.0000 H   0  0  0  0  0  0  0  0  0  0  0  0
   -1.5667    0.8677    0.0000 H   0  0  0  0  0  0  0  0  0  0  0  0
   -1.4576    0.4072    0.0000 H   0  0  0  0  0  0  0  0  0  0  0  0
   -0.3989   -1.1550    0.0000 H   0  0  0  0  0  0  0  0  0  0  0  0
    0.3416   -1.1550    0.0000 H   0  0  0  0  0  0  0  0  0  0  0  0
    1.1391   -0.6946    0.0000 H   0  0  0  0  0  0  0  0  0  0  0  0
    1.5094   -0.0533    0.0000 H   0  0  0  0  0  0  0  0  0  0  0  0
   -2.5846    0.7092    0.0000 H   0  0  0  0  0  0  0  0  0  0  0  0
   -3.6010   -0.0053    0.0000 H   0  0  0  0  0  0  0  0  0  0  0  0
   -3.6010   -1.6553    0.0000 H   0  0  0  0  0  0  0  0  0  0  0  0
   -2.1721   -2.4803    0.0000 H   0  0  0  0  0  0  0  0  0  0  0  0
   -0.7431   -1.6553    0.0000 H   0  0  0  0  0  0  0  0  0  0  0  0
  2  1  1  0  0  0  0
  3  2  1  0  0  0  0
  4  3  1  0  0  0  0
  5  4  1  0  0  0  0
  6  5  1  0  0  0  0
  4  7  1  0  0  0  0
  8  7  4  0  0  0  0
  9  8  4  0  0  0  0
 10  9  4  0  0  0  0
 11 10  4  0  0  0  0
 12 11  4  0  0  0  0
  1  6  1  0  0  0  0
  7 12  4  0  0  0  0
  1 13  1  0  0  0  0
  1 14  1  0  0  0  0
  2 15  1  0  0  0  0
  2 16  1  0  0  0  0
  3 17  1  0  0  0  0
  3 18  1  0  0  0  0
  4 19  1  0  0  0  0
  5 20  1  0  0  0  0
  5 21  1  0  0  0  0
  6 22  1  0  0  0  0
  6 23  1  0  0  0  0
  8 24  1  0  0  0  0
  9 25  1  0  0  0  0
 10 26  1  0  0  0  0
 11 27  1  0  0  0  0
 12 28  1  0  0  0  0
M  END
>  <id_input>
4038

>  <InChIKey>
IGARGHRYKHJQSM-UHFFFAOYSA-N

>  <substance_name>
cyclohexylbenzene

>  <casrn>
827-52-1

>  <Molecular weight>
160.2554473876953

>  <guideline>
OECD Guideline 404 (Acute Dermal Irritation / Corrosion)

>  <species>
rabbit

>  <type_of_coverage>
semiocclusive

>  <max_duration(hrs)>
4.0

>  <vehicle>
unchanged (no vehicle)

>  <edema/ erythema score>
2.2

>  <reversibility>
0.0

>  <Outcome>
1

>  <StandardizerResult>
Remove Explicit Hydrogens (ID: RemoveExplicitH)
Dearomatize (ID: Dearomatize)
Clear Stereo (ID: ClearStereo)
Wedge Clean (ID: WedgeClean)
Mesomerize (ID: Mesomerize)
Tautomerize (ID: Tautomerize)
Aromatize (ID: Aromatize)
Add Explicit Hydrogens (ID: AddExplicitH)
Neutralize (ID: Neutralize)
Clean 2D (ID: Clean2D)


$$$$

  Mrv1812 02121911042D          

 13 12  0  0  0  0            999 V2000
    1.1270    1.1270    0.0000 C   0  0  0  0  0  0  0  0  0  0  0  0
    0.7145    0.4125    0.0000 C   0  0  0  0  0  3  0  0  0  0  0  0
    1.1270   -0.3020    0.0000 C   0  0  0  0  0  0  0  0  0  0  0  0
   -0.1105    0.4125    0.0000 C   0  0  0  0  0  0  0  0  0  0  0  0
    1.8415    0.7145    0.0000 H   0  0  0  0  0  0  0  0  0  0  0  0
    1.5395    1.8414    0.0000 H   0  0  0  0  0  0  0  0  0  0  0  0
    0.4125    1.5395    0.0000 H   0  0  0  0  0  0  0  0  0  0  0  0
    0.4125   -0.7145    0.0000 H   0  0  0  0  0  0  0  0  0  0  0  0
    1.5395   -1.0164    0.0000 H   0  0  0  0  0  0  0  0  0  0  0  0
    1.8415    0.1105    0.0000 H   0  0  0  0  0  0  0  0  0  0  0  0
   -0.1105    1.2375    0.0000 H   0  0  0  0  0  0  0  0  0  0  0  0
   -0.9355    0.4125    0.0000 H   0  0  0  0  0  0  0  0  0  0  0  0
   -0.1105   -0.4125    0.0000 H   0  0  0  0  0  0  0  0  0  0  0  0
  1  2  1  0  0  0  0
  2  3  1  0  0  0  0
  2  4  1  0  0  0  0
  1  5  1  0  0  0  0
  1  6  1  0  0  0  0
  1  7  1  0  0  0  0
  3  8  1  0  0  0  0
  3  9  1  0  0  0  0
  3 10  1  0  0  0  0
  4 11  1  0  0  0  0
  4 12  1  0  0  0  0
  4 13  1  0  0  0  0
M  RAD  1   2   2
M  END
>  <id_input>
610

>  <InChIKey>
IIVWHGMLFGNMOW-UHFFFAOYSA-N

>  <substance_name>
-

>  <casrn>
7756-94-7

>  <Molecular weight>
57.114261627197266

>  <guideline>
OECD Guideline 404 (Acute Dermal Irritation / Corrosion)

>  <species>
rabbit

>  <type_of_coverage>
semiocclusive

>  <max_duration(hrs)>
4.0

>  <vehicle>
unchanged (no vehicle)

>  <edema/ erythema score>
1.6

>  <max_score>
2.0

>  <reversibility>
0.0

>  <Outcome>
1

>  <StandardizerResult>
Remove Explicit Hydrogens (ID: RemoveExplicitH)
Clear Stereo (ID: ClearStereo)
Wedge Clean (ID: WedgeClean)
Mesomerize (ID: Mesomerize)
Tautomerize (ID: Tautomerize)
Add Explicit Hydrogens (ID: AddExplicitH)
Neutralize (ID: Neutralize)
Clean 2D (ID: Clean2D)


$$$$

  Mrv1812 02121911042D          

 52 52  0  0  0  0            999 V2000
    4.9049   -0.3782    0.0000 C   0  0  0  0  0  0  0  0  0  0  0  0
    4.3746   -1.0101    0.0000 C   0  0  0  0  0  0  0  0  0  0  0  0
    3.5622   -0.8669    0.0000 C   0  0  0  0  0  0  0  0  0  0  0  0
    3.7054   -0.0544    0.0000 C   0  0  0  0  0  0  0  0  0  0  0  0
    3.4189   -1.6793    0.0000 C   0  0  0  0  0  0  0  0  0  0  0  0
    2.7497   -0.7236    0.0000 O   0  0  0  0  0  0  0  0  0  0  0  0
    2.2194   -1.3556    0.0000 O   0  0  0  0  0  0  0  0  0  0  0  0
    1.4069   -1.2124    0.0000 C   0  0  0  0  0  0  0  0  0  0  0  0
    0.6925   -0.7999    0.0000 C   0  0  0  0  0  0  0  0  0  0  0  0
   -0.0220   -1.2124    0.0000 C   0  0  0  0  0  0  0  0  0  0  0  0
   -0.0220   -2.0374    0.0000 C   0  0  0  0  0  0  0  0  0  0  0  0
    0.6925   -2.4499    0.0000 C   0  0  0  0  0  0  0  0  0  0  0  0
    1.4069   -2.0374    0.0000 C   0  0  0  0  0  0  0  0  0  0  0  0
    1.6891   -0.4371    0.0000 O   0  0  0  0  0  0  0  0  0  0  0  0
    1.1588    0.1949    0.0000 O   0  0  0  0  0  0  0  0  0  0  0  0
    1.4410    0.9701    0.0000 C   0  0  0  0  0  0  0  0  0  0  0  0
    2.2162    0.6880    0.0000 C   0  0  0  0  0  0  0  0  0  0  0  0
    0.6657    1.2523    0.0000 C   0  0  0  0  0  0  0  0  0  0  0  0
    1.7231    1.7454    0.0000 C   0  0  0  0  0  0  0  0  0  0  0  0
    1.1928    2.3774    0.0000 C   0  0  0  0  0  0  0  0  0  0  0  0
    5.5369   -0.9085    0.0000 H   0  0  0  0  0  0  0  0  0  0  0  0
    5.4352    0.2538    0.0000 H   0  0  0  0  0  0  0  0  0  0  0  0
    4.2730    0.1521    0.0000 H   0  0  0  0  0  0  0  0  0  0  0  0
    4.2789   -1.8296    0.0000 H   0  0  0  0  0  0  0  0  0  0  0  0
    4.9747   -1.5763    0.0000 H   0  0  0  0  0  0  0  0  0  0  0  0
    3.8487    0.7580    0.0000 H   0  0  0  0  0  0  0  0  0  0  0  0
    3.0735    0.4759    0.0000 H   0  0  0  0  0  0  0  0  0  0  0  0
    2.9302   -0.3366    0.0000 H   0  0  0  0  0  0  0  0  0  0  0  0
    2.7229   -1.2364    0.0000 H   0  0  0  0  0  0  0  0  0  0  0  0
    2.7435   -2.1531    0.0000 H   0  0  0  0  0  0  0  0  0  0  0  0
    3.5984   -2.4846    0.0000 H   0  0  0  0  0  0  0  0  0  0  0  0
    1.0627   -0.0626    0.0000 H   0  0  0  0  0  0  0  0  0  0  0  0
    0.3222   -0.0626    0.0000 H   0  0  0  0  0  0  0  0  0  0  0  0
   -0.4753   -0.5231    0.0000 H   0  0  0  0  0  0  0  0  0  0  0  0
   -0.8456   -1.1644    0.0000 H   0  0  0  0  0  0  0  0  0  0  0  0
   -0.8456   -2.0853    0.0000 H   0  0  0  0  0  0  0  0  0  0  0  0
   -0.4753   -2.7266    0.0000 H   0  0  0  0  0  0  0  0  0  0  0  0
    0.3222   -3.1871    0.0000 H   0  0  0  0  0  0  0  0  0  0  0  0
    1.0627   -3.1871    0.0000 H   0  0  0  0  0  0  0  0  0  0  0  0
    1.8603   -2.7266    0.0000 H   0  0  0  0  0  0  0  0  0  0  0  0
    2.2306   -2.0853    0.0000 H   0  0  0  0  0  0  0  0  0  0  0  0
    1.7126    0.0346    0.0000 H   0  0  0  0  0  0  0  0  0  0  0  0
    2.2699   -0.1353    0.0000 H   0  0  0  0  0  0  0  0  0  0  0  0
    2.4567    1.4771    0.0000 H   0  0  0  0  0  0  0  0  0  0  0  0
    0.9479    2.0275    0.0000 H   0  0  0  0  0  0  0  0  0  0  0  0
   -0.1095    1.5345    0.0000 H   0  0  0  0  0  0  0  0  0  0  0  0
    0.3836    0.4770    0.0000 H   0  0  0  0  0  0  0  0  0  0  0  0
    2.4380    2.1572    0.0000 H   0  0  0  0  0  0  0  0  0  0  0  0
    1.8668    2.5578    0.0000 H   0  0  0  0  0  0  0  0  0  0  0  0
    1.4752    3.1526    0.0000 H   0  0  0  0  0  0  0  0  0  0  0  0
    0.7197    3.0532    0.0000 H   0  0  0  0  0  0  0  0  0  0  0  0
    0.3678    2.3774    0.0000 H   0  0  0  0  0  0  0  0  0  0  0  0
  1  2  1  0  0  0  0
  2  3  1  0  0  0  0
  3  4  1  0  0  0  0
  3  5  1  0  0  0  0
  3  6  1  0  0  0  0
  6  7  1  0  0  0  0
  7  8  1  0  0  0  0
  9  8  1  0  0  0  0
 10  9  1  0  0  0  0
 11 10  1  0  0  0  0
 12 11  1  0  0  0  0
 13 12  1  0  0  0  0
  8 14  1  0  0  0  0
 14 15  1  0  0  0  0
 15 16  1  0  0  0  0
 16 17  1  0  0  0  0
 16 18  1  0  0  0  0
 16 19  1  0  0  0  0
 19 20  1  0  0  0  0
  8 13  1  0  0  0  0
  1 21  1  0  0  0  0
  1 22  1  0  0  0  0
  1 23  1  0  0  0  0
  2 24  1  0  0  0  0
  2 25  1  0  0  0  0
  4 26  1  0  0  0  0
  4 27  1  0  0  0  0
  4 28  1  0  0  0  0
  5 29  1  0  0  0  0
  5 30  1  0  0  0  0
  5 31  1  0  0  0  0
  9 32  1  0  0  0  0
  9 33  1  0  0  0  0
 10 34  1  0  0  0  0
 10 35  1  0  0  0  0
 11 36  1  0  0  0  0
 11 37  1  0  0  0  0
 12 38  1  0  0  0  0
 12 39  1  0  0  0  0
 13 40  1  0  0  0  0
 13 41  1  0  0  0  0
 17 42  1  0  0  0  0
 17 43  1  0  0  0  0
 17 44  1  0  0  0  0
 18 45  1  0  0  0  0
 18 46  1  0  0  0  0
 18 47  1  0  0  0  0
 19 48  1  0  0  0  0
 19 49  1  0  0  0  0
 20 50  1  0  0  0  0
 20 51  1  0  0  0  0
 20 52  1  0  0  0  0
M  END
>  <id_input>
1693

>  <InChIKey>
IMYCVFRTNVMHAD-UHFFFAOYSA-N

>  <substance_name>
1,1-bis[(2-methylbutan-2-yl)peroxy]cyclohexane

>  <casrn>
15667-10-4

>  <Molecular weight>
288.4228820800781

>  <guideline>
OECD Guideline 404 (Acute Dermal Irritation / Corrosion)

>  <species>
rabbit

>  <type_of_coverage>
semiocclusive

>  <max_duration(hrs)>
4.0

>  <vehicle>
unchanged (no vehicle)

>  <edema/ erythema score>
3.4

>  <max_score>
4.0

>  <reversibility>
1.0

>  <Outcome>
1

>  <StandardizerResult>
Remove Explicit Hydrogens (ID: RemoveExplicitH)
Clear Stereo (ID: ClearStereo)
Wedge Clean (ID: WedgeClean)
Mesomerize (ID: Mesomerize)
Tautomerize (ID: Tautomerize)
Add Explicit Hydrogens (ID: AddExplicitH)
Neutralize (ID: Neutralize)
Clean 2D (ID: Clean2D)


$$$$

  Mrv1812 02121911042D          

 17 17  0  0  0  0            999 V2000
    1.4160    0.8735    0.0000 N   0  0  0  0  0  0  0  0  0  0  0  0
    0.7015    0.4610    0.0000 C   0  0  0  0  0  0  0  0  0  0  0  0
   -0.0130    0.8735    0.0000 C   0  0  0  0  0  0  0  0  0  0  0  0
   -0.0130    1.6985    0.0000 Cl  0  0  0  0  0  0  0  0  0  0  0  0
   -0.7275    0.4610    0.0000 C   0  0  0  0  0  0  0  0  0  0  0  0
   -0.7275   -0.3640    0.0000 C   0  0  0  0  0  0  0  0  0  0  0  0
   -0.0130   -0.7765    0.0000 C   0  0  0  0  0  0  0  0  0  0  0  0
    0.7015   -0.3640    0.0000 C   0  0  0  0  0  0  0  0  0  0  0  0
    1.4160   -0.7765    0.0000 Cl  0  0  0  0  0  0  0  0  0  0  0  0
   -1.4419   -0.7765    0.0000 C   0  0  0  0  0  0  0  0  0  0  0  0
   -2.1564   -1.1890    0.0000 F   0  0  0  0  0  0  0  0  0  0  0  0
   -1.8544   -0.0620    0.0000 F   0  0  0  0  0  0  0  0  0  0  0  0
   -1.0294   -1.4910    0.0000 F   0  0  0  0  0  0  0  0  0  0  0  0
    2.1304    0.4610    0.0000 H   0  0  0  0  0  0  0  0  0  0  0  0
    1.4160    1.6985    0.0000 H   0  0  0  0  0  0  0  0  0  0  0  0
   -1.4419    0.8735    0.0000 H   0  0  0  0  0  0  0  0  0  0  0  0
   -0.0130   -1.6015    0.0000 H   0  0  0  0  0  0  0  0  0  0  0  0
  1  2  1  0  0  0  0
  3  2  4  0  0  0  0
  3  4  1  0  0  0  0
  5  3  4  0  0  0  0
  6  5  4  0  0  0  0
  7  6  4  0  0  0  0
  8  7  4  0  0  0  0
  8  9  1  0  0  0  0
  6 10  1  0  0  0  0
 10 11  1  0  0  0  0
 10 12  1  0  0  0  0
 10 13  1  0  0  0  0
  2  8  4  0  0  0  0
  1 14  1  0  0  0  0
  1 15  1  0  0  0  0
  5 16  1  0  0  0  0
  7 17  1  0  0  0  0
M  END
>  <id_input>
2154

>  <InChIKey>
ITNMAZSPBLRJLU-UHFFFAOYSA-N

>  <substance_name>
2,6-dichloro-4-(trifluoromethyl)aniline

>  <casrn>
24279-39-8

>  <Molecular weight>
230.0145721435547

>  <guideline>
OECD Guideline 404 (Acute Dermal Irritation / Corrosion)

>  <species>
rabbit

>  <type_of_coverage>
semiocclusive

>  <max_duration(hrs)>
4.0

>  <vehicle>
unchanged (no vehicle)

>  <edema/ erythema score>
2.0

>  <max_score>
4.0

>  <reversibility>
0.0

>  <Outcome>
1

>  <StandardizerResult>
Remove Explicit Hydrogens (ID: RemoveExplicitH)
Dearomatize (ID: Dearomatize)
Clear Stereo (ID: ClearStereo)
Wedge Clean (ID: WedgeClean)
Mesomerize (ID: Mesomerize)
Tautomerize (ID: Tautomerize)
Aromatize (ID: Aromatize)
Add Explicit Hydrogens (ID: AddExplicitH)
Neutralize (ID: Neutralize)
Clean 2D (ID: Clean2D)


$$$$

  Mrv1812 02121911042D          

 17 16  0  0  0  0            999 V2000
    1.3036    1.5360    0.0000 C   0  0  0  0  0  0  0  0  0  0  0  0
    0.8911    0.8215    0.0000 C   0  0  0  0  0  0  0  0  0  0  0  0
    0.1766    1.2340    0.0000 C   0  0  0  0  0  0  0  0  0  0  0  0
    1.6055    0.4090    0.0000 C   0  0  0  0  0  0  0  0  0  0  0  0
    0.4786    0.1070    0.0000 C   0  0  0  0  0  0  0  0  0  0  0  0
    0.8911   -0.6074    0.0000 O   0  0  0  0  0  0  0  0  0  0  0  0
   -0.3464    0.1070    0.0000 O   0  0  0  0  0  0  0  0  0  0  0  0
    2.0180    1.1235    0.0000 H   0  0  0  0  0  0  0  0  0  0  0  0
    1.7161    2.2504    0.0000 H   0  0  0  0  0  0  0  0  0  0  0  0
    0.5891    1.9485    0.0000 H   0  0  0  0  0  0  0  0  0  0  0  0
   -0.3256    1.8885    0.0000 H   0  0  0  0  0  0  0  0  0  0  0  0
   -0.6203    1.0205    0.0000 H   0  0  0  0  0  0  0  0  0  0  0  0
    0.0689    0.4161    0.0000 H   0  0  0  0  0  0  0  0  0  0  0  0
    0.9510   -0.0932    0.0000 H   0  0  0  0  0  0  0  0  0  0  0  0
    1.8191   -0.3879    0.0000 H   0  0  0  0  0  0  0  0  0  0  0  0
    2.4235    0.3013    0.0000 H   0  0  0  0  0  0  0  0  0  0  0  0
    0.5642   -1.3649    0.0000 H   0  0  0  0  0  0  0  0  0  0  0  0
  1  2  1  0  0  0  0
  2  3  1  0  0  0  0
  2  4  1  0  0  0  0
  2  5  1  0  0  0  0
  5  6  1  0  0  0  0
  5  7  2  0  0  0  0
  1  8  1  0  0  0  0
  1  9  1  0  0  0  0
  1 10  1  0  0  0  0
  3 11  1  0  0  0  0
  3 12  1  0  0  0  0
  3 13  1  0  0  0  0
  4 14  1  0  0  0  0
  4 15  1  0  0  0  0
  4 16  1  0  0  0  0
  6 17  1  0  0  0  0
M  END
>  <id_input>
4801

>  <InChIKey>
IUGYQRQAERSCNH-UHFFFAOYSA-N

>  <substance_name>
pivalic acid

>  <casrn>
75-98-9

>  <Molecular weight>
102.13169860839844

>  <guideline>
OECD Guideline 404 (Acute Dermal Irritation / Corrosion)

>  <species>
rabbit

>  <type_of_coverage>
not specified

>  <max_duration(hrs)>
4.0

>  <vehicle>
unchanged (no vehicle)

>  <edema/ erythema score>
3.61

>  <reversibility>
1.0

>  <Outcome>
1

>  <StandardizerResult>
Remove Explicit Hydrogens (ID: RemoveExplicitH)
Clear Stereo (ID: ClearStereo)
Wedge Clean (ID: WedgeClean)
Mesomerize (ID: Mesomerize)
Tautomerize (ID: Tautomerize)
Add Explicit Hydrogens (ID: AddExplicitH)
Neutralize (ID: Neutralize)
Clean 2D (ID: Clean2D)


$$$$

  Mrv1812 02121911042D          

 21 20  0  0  0  0            999 V2000
   -0.4699    0.8886    0.0000 C   0  0  0  0  0  0  0  0  0  0  0  0
    0.2446    1.3011    0.0000 N   0  0  0  0  0  0  0  0  0  0  0  0
    0.2446    2.1261    0.0000 C   0  0  0  0  0  0  0  0  0  0  0  0
    0.9591    0.8886    0.0000 C   0  0  0  0  0  0  0  0  0  0  0  0
    1.6736    1.3011    0.0000 C   0  0  0  0  0  0  0  0  0  0  0  0
    2.3880    0.8886    0.0000 C   0  0  0  0  0  0  0  0  0  0  0  0
    3.1025    1.3011    0.0000 N   0  0  0  0  0  0  0  0  0  0  0  0
   -0.8824    1.6031    0.0000 H   0  0  0  0  0  0  0  0  0  0  0  0
   -1.1843    0.4761    0.0000 H   0  0  0  0  0  0  0  0  0  0  0  0
   -0.0574    0.1742    0.0000 H   0  0  0  0  0  0  0  0  0  0  0  0
    1.0696    2.1261    0.0000 H   0  0  0  0  0  0  0  0  0  0  0  0
    0.2446    2.9511    0.0000 H   0  0  0  0  0  0  0  0  0  0  0  0
   -0.5804    2.1261    0.0000 H   0  0  0  0  0  0  0  0  0  0  0  0
    0.5888    0.1514    0.0000 H   0  0  0  0  0  0  0  0  0  0  0  0
    1.3293    0.1514    0.0000 H   0  0  0  0  0  0  0  0  0  0  0  0
    2.0438    2.0384    0.0000 H   0  0  0  0  0  0  0  0  0  0  0  0
    1.3033    2.0384    0.0000 H   0  0  0  0  0  0  0  0  0  0  0  0
    2.0178    0.1514    0.0000 H   0  0  0  0  0  0  0  0  0  0  0  0
    2.7583    0.1514    0.0000 H   0  0  0  0  0  0  0  0  0  0  0  0
    3.8170    0.8886    0.0000 H   0  0  0  0  0  0  0  0  0  0  0  0
    3.1025    2.1261    0.0000 H   0  0  0  0  0  0  0  0  0  0  0  0
  1  2  1  0  0  0  0
  2  3  1  0  0  0  0
  2  4  1  0  0  0  0
  4  5  1  0  0  0  0
  5  6  1  0  0  0  0
  6  7  1  0  0  0  0
  1  8  1  0  0  0  0
  1  9  1  0  0  0  0
  1 10  1  0  0  0  0
  3 11  1  0  0  0  0
  3 12  1  0  0  0  0
  3 13  1  0  0  0  0
  4 14  1  0  0  0  0
  4 15  1  0  0  0  0
  5 16  1  0  0  0  0
  5 17  1  0  0  0  0
  6 18  1  0  0  0  0
  6 19  1  0  0  0  0
  7 20  1  0  0  0  0
  7 21  1  0  0  0  0
M  END
>  <id_input>
87

>  <InChIKey>
IUNMPGNGSSIWFP-UHFFFAOYSA-N

>  <substance_name>
(3-aminopropyl)dimethylamine

>  <casrn>
109-55-7

>  <Molecular weight>
102.17806243896484

>  <guideline>
OECD Guideline 404 (Acute Dermal Irritation / Corrosion)

>  <species>
rabbit

>  <type_of_coverage>
semiocclusive

>  <max_duration(hrs)>
24.0

>  <vehicle>
unchanged (no vehicle)

>  <edema/ erythema score>
3.66666666666666

>  <max_score>
4.0

>  <reversibility>
1.0

>  <Outcome>
1

>  <StandardizerResult>
Remove Explicit Hydrogens (ID: RemoveExplicitH)
Clear Stereo (ID: ClearStereo)
Wedge Clean (ID: WedgeClean)
Mesomerize (ID: Mesomerize)
Tautomerize (ID: Tautomerize)
Add Explicit Hydrogens (ID: AddExplicitH)
Neutralize (ID: Neutralize)
Clean 2D (ID: Clean2D)


$$$$

  Mrv1812 02121911042D          

 36 35  0  0  0  0            999 V2000
   -2.2503    1.7263    0.0000 C   0  0  0  0  0  0  0  0  0  0  0  0
   -2.2503    0.9013    0.0000 C   0  0  0  0  0  0  0  0  0  0  0  0
   -1.5358    0.4888    0.0000 C   0  0  0  0  0  0  0  0  0  0  0  0
   -1.5358   -0.3362    0.0000 C   0  0  0  0  0  0  0  0  0  0  0  0
   -0.8213   -0.7487    0.0000 O   0  0  0  0  0  0  0  0  0  0  0  0
   -0.8213   -1.5737    0.0000 C   0  0  0  0  0  0  0  0  0  0  0  0
   -1.5358   -1.9862    0.0000 O   0  0  0  0  0  0  0  0  0  0  0  0
   -0.1069   -1.9862    0.0000 C   0  0  0  0  0  0  0  0  0  0  0  0
   -0.1069   -2.8112    0.0000 C   0  0  0  0  0  0  0  0  0  0  0  0
    0.6076   -3.2237    0.0000 C   0  0  0  0  0  0  0  0  0  0  0  0
    0.6076   -4.0487    0.0000 O   0  0  0  0  0  0  0  0  0  0  0  0
    1.3221   -2.8112    0.0000 O   0  0  0  0  0  0  0  0  0  0  0  0
    2.0365   -3.2237    0.0000 C   0  0  0  0  0  0  0  0  0  0  0  0
    2.7510   -2.8112    0.0000 C   0  0  0  0  0  0  0  0  0  0  0  0
    3.4655   -3.2237    0.0000 C   0  0  0  0  0  0  0  0  0  0  0  0
    4.1800   -2.8112    0.0000 C   0  0  0  0  0  0  0  0  0  0  0  0
   -1.4253    1.7263    0.0000 H   0  0  0  0  0  0  0  0  0  0  0  0
   -2.2503    2.5513    0.0000 H   0  0  0  0  0  0  0  0  0  0  0  0
   -3.0753    1.7263    0.0000 H   0  0  0  0  0  0  0  0  0  0  0  0
   -3.0739    0.8534    0.0000 H   0  0  0  0  0  0  0  0  0  0  0  0
   -2.7036    0.2121    0.0000 H   0  0  0  0  0  0  0  0  0  0  0  0
   -0.7122    0.5368    0.0000 H   0  0  0  0  0  0  0  0  0  0  0  0
   -1.0825    1.1781    0.0000 H   0  0  0  0  0  0  0  0  0  0  0  0
   -2.3594   -0.3841    0.0000 H   0  0  0  0  0  0  0  0  0  0  0  0
   -1.9892   -1.0254    0.0000 H   0  0  0  0  0  0  0  0  0  0  0  0
    0.6076   -1.5737    0.0000 H   0  0  0  0  0  0  0  0  0  0  0  0
   -0.8213   -3.2237    0.0000 H   0  0  0  0  0  0  0  0  0  0  0  0
    1.6663   -3.9609    0.0000 H   0  0  0  0  0  0  0  0  0  0  0  0
    2.4068   -3.9609    0.0000 H   0  0  0  0  0  0  0  0  0  0  0  0
    3.1213   -2.0739    0.0000 H   0  0  0  0  0  0  0  0  0  0  0  0
    2.3808   -2.0739    0.0000 H   0  0  0  0  0  0  0  0  0  0  0  0
    3.0952   -3.9609    0.0000 H   0  0  0  0  0  0  0  0  0  0  0  0
    3.8358   -3.9609    0.0000 H   0  0  0  0  0  0  0  0  0  0  0  0
    4.5925   -3.5256    0.0000 H   0  0  0  0  0  0  0  0  0  0  0  0
    4.8944   -2.3987    0.0000 H   0  0  0  0  0  0  0  0  0  0  0  0
    3.7675   -2.0967    0.0000 H   0  0  0  0  0  0  0  0  0  0  0  0
  1  2  1  0  0  0  0
  2  3  1  0  0  0  0
  3  4  1  0  0  0  0
  4  5  1  0  0  0  0
  5  6  1  0  0  0  0
  6  7  2  0  0  0  0
  8  6  1  4  0  0  0
  8  9  2  0  0  0  0
  9 10  1  0  0  0  0
 10 11  2  0  0  0  0
 10 12  1  0  0  0  0
 12 13  1  0  0  0  0
 13 14  1  0  0  0  0
 14 15  1  0  0  0  0
 15 16  1  0  0  0  0
  1 17  1  0  0  0  0
  1 18  1  0  0  0  0
  1 19  1  0  0  0  0
  2 20  1  0  0  0  0
  2 21  1  0  0  0  0
  3 22  1  0  0  0  0
  3 23  1  0  0  0  0
  4 24  1  0  0  0  0
  4 25  1  0  0  0  0
  8 26  1  0  0  0  0
  9 27  1  0  0  0  0
 13 28  1  0  0  0  0
 13 29  1  0  0  0  0
 14 30  1  0  0  0  0
 14 31  1  0  0  0  0
 15 32  1  0  0  0  0
 15 33  1  0  0  0  0
 16 34  1  0  0  0  0
 16 35  1  0  0  0  0
 16 36  1  0  0  0  0
M  END
>  <id_input>
1807, 4128

>  <InChIKey>
JBSLOWBPDRZSMB-UHFFFAOYSA-N

>  <substance_name>
1,4-dibutyl (2Z)-but-2-enedioate

>  <casrn>
105-76-0

>  <Molecular weight>
228.28480529785156

>  <guideline>
OECD Guideline 404 (Acute Dermal Irritation / Corrosion)

>  <species>
rabbit

>  <type_of_coverage>
semiocclusive

>  <max_duration(hrs)>
4.0

>  <vehicle>
unchanged (no vehicle)

>  <edema/ erythema score>
1.649999999999995

>  <max_score>
3.0

>  <reversibility>
0.0

>  <Outcome>
1

>  <StandardizerResult>
Remove Explicit Hydrogens (ID: RemoveExplicitH)
Clear Stereo (ID: ClearStereo)
Wedge Clean (ID: WedgeClean)
Mesomerize (ID: Mesomerize)
Tautomerize (ID: Tautomerize)
Add Explicit Hydrogens (ID: AddExplicitH)
Neutralize (ID: Neutralize)
Clean 2D (ID: Clean2D)


$$$$

  Mrv1812 02121911042D          

 28 27  0  0  0  0            999 V2000
    0.3726   -1.0920    0.0000 C   0  0  0  0  0  0  0  0  0  0  0  0
    1.1976   -1.0920    0.0000 C   0  0  0  0  0  0  0  0  0  0  0  0
    1.6101   -0.3776    0.0000 N   0  0  0  0  0  0  0  0  0  0  0  0
    2.4351   -0.3776    0.0000 C   0  0  0  0  0  0  0  0  0  0  0  0
    2.8476    0.3369    0.0000 C   0  0  0  0  0  0  0  0  0  0  0  0
    2.8476   -1.0920    0.0000 C   0  0  0  0  0  0  0  0  0  0  0  0
    1.1976    0.3369    0.0000 C   0  0  0  0  0  0  0  0  0  0  0  0
    1.6101    1.0514    0.0000 C   0  0  0  0  0  0  0  0  0  0  0  0
    0.3726    0.3369    0.0000 C   0  0  0  0  0  0  0  0  0  0  0  0
    0.3726   -0.2670    0.0000 H   0  0  0  0  0  0  0  0  0  0  0  0
   -0.4524   -1.0920    0.0000 H   0  0  0  0  0  0  0  0  0  0  0  0
    0.3726   -1.9170    0.0000 H   0  0  0  0  0  0  0  0  0  0  0  0
    1.2455   -1.9156    0.0000 H   0  0  0  0  0  0  0  0  0  0  0  0
    1.8869   -1.5454    0.0000 H   0  0  0  0  0  0  0  0  0  0  0  0
    2.0226    0.3369    0.0000 H   0  0  0  0  0  0  0  0  0  0  0  0
    3.4309   -0.2465    0.0000 H   0  0  0  0  0  0  0  0  0  0  0  0
    3.5620    0.7494    0.0000 H   0  0  0  0  0  0  0  0  0  0  0  0
    2.6341    1.1338    0.0000 H   0  0  0  0  0  0  0  0  0  0  0  0
    2.1331   -1.5045    0.0000 H   0  0  0  0  0  0  0  0  0  0  0  0
    3.2601   -1.8065    0.0000 H   0  0  0  0  0  0  0  0  0  0  0  0
    3.5620   -0.6795    0.0000 H   0  0  0  0  0  0  0  0  0  0  0  0
    0.7851   -0.3776    0.0000 H   0  0  0  0  0  0  0  0  0  0  0  0
    2.4070    1.2649    0.0000 H   0  0  0  0  0  0  0  0  0  0  0  0
    1.6101    1.8764    0.0000 H   0  0  0  0  0  0  0  0  0  0  0  0
    0.8132    1.2649    0.0000 H   0  0  0  0  0  0  0  0  0  0  0  0
    0.6883    1.0991    0.0000 H   0  0  0  0  0  0  0  0  0  0  0  0
   -0.2108    0.9203    0.0000 H   0  0  0  0  0  0  0  0  0  0  0  0
   -0.3896    0.0212    0.0000 H   0  0  0  0  0  0  0  0  0  0  0  0
  1  2  1  0  0  0  0
  2  3  1  0  0  0  0
  3  4  1  0  0  0  0
  4  5  1  0  0  0  0
  4  6  1  0  0  0  0
  3  7  1  0  0  0  0
  7  8  1  0  0  0  0
  7  9  1  0  0  0  0
  1 10  1  0  0  0  0
  1 11  1  0  0  0  0
  1 12  1  0  0  0  0
  2 13  1  0  0  0  0
  2 14  1  0  0  0  0
  4 15  1  0  0  0  0
  5 16  1  0  0  0  0
  5 17  1  0  0  0  0
  5 18  1  0  0  0  0
  6 19  1  0  0  0  0
  6 20  1  0  0  0  0
  6 21  1  0  0  0  0
  7 22  1  0  0  0  0
  8 23  1  0  0  0  0
  8 24  1  0  0  0  0
  8 25  1  0  0  0  0
  9 26  1  0  0  0  0
  9 27  1  0  0  0  0
  9 28  1  0  0  0  0
M  END
>  <id_input>
4365

>  <InChIKey>
JGFZNNIVVJXRND-UHFFFAOYSA-N

>  <substance_name>
ethylbis(propan-2-yl)amine

>  <casrn>
7087-68-5

>  <Molecular weight>
129.2431640625

>  <guideline>
OECD Guideline 404 (Acute Dermal Irritation / Corrosion)

>  <species>
rabbit

>  <type_of_coverage>
semiocclusive

>  <max_duration(hrs)>
4.0

>  <vehicle>
unchanged (no vehicle)

>  <edema/ erythema score>
1.85

>  <max_score>
4.0

>  <reversibility>
0.0

>  <Outcome>
1

>  <StandardizerResult>
Remove Explicit Hydrogens (ID: RemoveExplicitH)
Clear Stereo (ID: ClearStereo)
Wedge Clean (ID: WedgeClean)
Mesomerize (ID: Mesomerize)
Tautomerize (ID: Tautomerize)
Add Explicit Hydrogens (ID: AddExplicitH)
Neutralize (ID: Neutralize)
Clean 2D (ID: Clean2D)


$$$$

  Mrv1812 02121911042D          

 15 14  0  0  0  0            999 V2000
    0.0000   -0.0036    0.0000 C   0  0  0  0  0  0  0  0  0  0  0  0
    0.7145    0.4089    0.0000 C   0  0  0  0  0  0  0  0  0  0  0  0
    1.4290   -0.0036    0.0000 O   0  0  0  0  0  0  0  0  0  0  0  0
    2.1434    0.4089    0.0000 C   0  0  0  0  0  0  0  0  0  0  0  0
    2.1434    1.2339    0.0000 O   0  0  0  0  0  0  0  0  0  0  0  0
    2.8579   -0.0036    0.0000 C   0  0  0  0  0  0  0  0  0  0  0  0
    3.5724    0.4089    0.0000 C   0  0  0  0  0  0  0  0  0  0  0  0
   -0.4125    0.7109    0.0000 H   0  0  0  0  0  0  0  0  0  0  0  0
   -0.7145   -0.4161    0.0000 H   0  0  0  0  0  0  0  0  0  0  0  0
    0.4125   -0.7180    0.0000 H   0  0  0  0  0  0  0  0  0  0  0  0
    1.0847    1.1462    0.0000 H   0  0  0  0  0  0  0  0  0  0  0  0
    0.3442    1.1462    0.0000 H   0  0  0  0  0  0  0  0  0  0  0  0
    2.8579   -0.8286    0.0000 H   0  0  0  0  0  0  0  0  0  0  0  0
    4.2868   -0.0036    0.0000 H   0  0  0  0  0  0  0  0  0  0  0  0
    3.5724    1.2339    0.0000 H   0  0  0  0  0  0  0  0  0  0  0  0
  1  2  1  0  0  0  0
  2  3  1  0  0  0  0
  3  4  1  0  0  0  0
  4  5  2  0  0  0  0
  4  6  1  0  0  0  0
  6  7  2  0  0  0  0
  1  8  1  0  0  0  0
  1  9  1  0  0  0  0
  1 10  1  0  0  0  0
  2 11  1  0  0  0  0
  2 12  1  0  0  0  0
  6 13  1  0  0  0  0
  7 14  1  0  0  0  0
  7 15  1  0  0  0  0
M  END
>  <id_input>
4359

>  <InChIKey>
JIGUQPWFLRLWPJ-UHFFFAOYSA-N

>  <substance_name>
ethyl prop-2-enoate

>  <casrn>
140-88-5

>  <Molecular weight>
100.1158218383789

>  <guideline>
OECD Guideline 404 (Acute Dermal Irritation / Corrosion)

>  <species>
rabbit

>  <type_of_coverage>
semiocclusive

>  <max_duration(hrs)>
4.0

>  <vehicle>
unchanged (no vehicle)

>  <edema/ erythema score>
2.175

>  <max_score>
4.0

>  <reversibility>
0.0

>  <Outcome>
1

>  <StandardizerResult>
Remove Explicit Hydrogens (ID: RemoveExplicitH)
Clear Stereo (ID: ClearStereo)
Wedge Clean (ID: WedgeClean)
Mesomerize (ID: Mesomerize)
Tautomerize (ID: Tautomerize)
Add Explicit Hydrogens (ID: AddExplicitH)
Neutralize (ID: Neutralize)
Clean 2D (ID: Clean2D)


$$$$

  Mrv1812 02121911042D          

 34 33  0  0  0  0            999 V2000
    4.3597   -2.4115    0.0000 C   0  0  0  0  0  0  0  0  0  0  0  0
    3.5347   -2.4115    0.0000 C   0  0  0  0  0  0  0  0  0  0  0  0
    3.1222   -1.6970    0.0000 C   0  0  0  0  0  0  0  0  0  0  0  0
    3.8367   -1.2845    0.0000 C   0  0  0  0  0  0  0  0  0  0  0  0
    2.4077   -2.1095    0.0000 C   0  0  0  0  0  0  0  0  0  0  0  0
    2.7097   -0.9825    0.0000 O   0  0  0  0  0  0  0  0  0  0  0  0
    1.8847   -0.9825    0.0000 O   0  0  0  0  0  0  0  0  0  0  0  0
    1.4722   -0.2680    0.0000 C   0  0  0  0  0  0  0  0  0  0  0  0
    2.1867    0.1445    0.0000 C   0  0  0  0  0  0  0  0  0  0  0  0
    0.7577   -0.6805    0.0000 C   0  0  0  0  0  0  0  0  0  0  0  0
    1.0597    0.4464    0.0000 C   0  0  0  0  0  0  0  0  0  0  0  0
    0.2347    0.4464    0.0000 C   0  0  0  0  0  0  0  0  0  0  0  0
    4.3597   -3.2365    0.0000 H   0  0  0  0  0  0  0  0  0  0  0  0
    5.1847   -2.4115    0.0000 H   0  0  0  0  0  0  0  0  0  0  0  0
    4.3597   -1.5865    0.0000 H   0  0  0  0  0  0  0  0  0  0  0  0
    2.8454   -2.8648    0.0000 H   0  0  0  0  0  0  0  0  0  0  0  0
    3.4867   -3.2351    0.0000 H   0  0  0  0  0  0  0  0  0  0  0  0
    4.5511   -0.8720    0.0000 H   0  0  0  0  0  0  0  0  0  0  0  0
    3.8367   -0.4595    0.0000 H   0  0  0  0  0  0  0  0  0  0  0  0
    3.1222   -0.8720    0.0000 H   0  0  0  0  0  0  0  0  0  0  0  0
    2.2997   -1.2916    0.0000 H   0  0  0  0  0  0  0  0  0  0  0  0
    1.6107   -1.8966    0.0000 H   0  0  0  0  0  0  0  0  0  0  0  0
    1.9063   -2.7646    0.0000 H   0  0  0  0  0  0  0  0  0  0  0  0
    2.5992   -0.5700    0.0000 H   0  0  0  0  0  0  0  0  0  0  0  0
    2.9011    0.5570    0.0000 H   0  0  0  0  0  0  0  0  0  0  0  0
    1.7742    0.8589    0.0000 H   0  0  0  0  0  0  0  0  0  0  0  0
    0.3452    0.0339    0.0000 H   0  0  0  0  0  0  0  0  0  0  0  0
    0.0433   -1.0930    0.0000 H   0  0  0  0  0  0  0  0  0  0  0  0
    1.1702   -1.3950    0.0000 H   0  0  0  0  0  0  0  0  0  0  0  0
    0.8462    1.2433    0.0000 H   0  0  0  0  0  0  0  0  0  0  0  0
    1.8566    0.2329    0.0000 H   0  0  0  0  0  0  0  0  0  0  0  0
    0.4999    1.2276    0.0000 H   0  0  0  0  0  0  0  0  0  0  0  0
   -0.4198    0.9487    0.0000 H   0  0  0  0  0  0  0  0  0  0  0  0
   -0.4513   -0.0119    0.0000 H   0  0  0  0  0  0  0  0  0  0  0  0
  1  2  1  0  0  0  0
  2  3  1  0  0  0  0
  3  4  1  0  0  0  0
  3  5  1  0  0  0  0
  3  6  1  0  0  0  0
  6  7  1  0  0  0  0
  7  8  1  0  0  0  0
  8  9  1  0  0  0  0
  8 10  1  0  0  0  0
  8 11  1  0  0  0  0
 11 12  1  0  0  0  0
  1 13  1  0  0  0  0
  1 14  1  0  0  0  0
  1 15  1  0  0  0  0
  2 16  1  0  0  0  0
  2 17  1  0  0  0  0
  4 18  1  0  0  0  0
  4 19  1  0  0  0  0
  4 20  1  0  0  0  0
  5 21  1  0  0  0  0
  5 22  1  0  0  0  0
  5 23  1  0  0  0  0
  9 24  1  0  0  0  0
  9 25  1  0  0  0  0
  9 26  1  0  0  0  0
 10 27  1  0  0  0  0
 10 28  1  0  0  0  0
 10 29  1  0  0  0  0
 11 30  1  0  0  0  0
 11 31  1  0  0  0  0
 12 32  1  0  0  0  0
 12 33  1  0  0  0  0
 12 34  1  0  0  0  0
M  END
>  <id_input>
2527, 2528, 2529

>  <InChIKey>
JJRDRFZYKKFYMO-UHFFFAOYSA-N

>  <substance_name>
2-methyl-2-[(2-methylbutan-2-yl)peroxy]butane

>  <casrn>
10508-09-5

>  <Molecular weight>
174.28048706054688

>  <guideline>
OECD Guideline 404 (Acute Dermal Irritation / Corrosion)

>  <species>
rabbit

>  <type_of_coverage>
semiocclusive

>  <max_duration(hrs)>
4.0

>  <vehicle>
unchanged (no vehicle)

>  <edema/ erythema score>
3.88

>  <max_score>
4.0

>  <reversibility>
0.0

>  <Outcome>
1

>  <StandardizerResult>
Remove Explicit Hydrogens (ID: RemoveExplicitH)
Clear Stereo (ID: ClearStereo)
Wedge Clean (ID: WedgeClean)
Mesomerize (ID: Mesomerize)
Tautomerize (ID: Tautomerize)
Add Explicit Hydrogens (ID: AddExplicitH)
Neutralize (ID: Neutralize)
Clean 2D (ID: Clean2D)


$$$$

  Mrv1812 02121911042D          

 13 12  0  0  0  0            999 V2000
    1.0952    1.1241    0.0000 C   0  0  0  0  0  0  0  0  0  0  0  0
    0.6827    0.4097    0.0000 C   0  0  0  0  0  0  0  0  0  0  0  0
    1.0952   -0.3048    0.0000 C   0  0  0  0  0  0  0  0  0  0  0  0
   -0.1423    0.4097    0.0000 N   0  0  0  0  0  0  0  0  0  0  0  0
    1.8097    0.7116    0.0000 H   0  0  0  0  0  0  0  0  0  0  0  0
    1.5077    1.8386    0.0000 H   0  0  0  0  0  0  0  0  0  0  0  0
    0.3808    1.5366    0.0000 H   0  0  0  0  0  0  0  0  0  0  0  0
    1.5077    0.4097    0.0000 H   0  0  0  0  0  0  0  0  0  0  0  0
    0.2983   -0.5183    0.0000 H   0  0  0  0  0  0  0  0  0  0  0  0
    1.0952   -1.1298    0.0000 H   0  0  0  0  0  0  0  0  0  0  0  0
    1.8921   -0.5183    0.0000 H   0  0  0  0  0  0  0  0  0  0  0  0
   -0.5548    1.1241    0.0000 H   0  0  0  0  0  0  0  0  0  0  0  0
   -0.5548   -0.3048    0.0000 H   0  0  0  0  0  0  0  0  0  0  0  0
  1  2  1  0  0  0  0
  2  3  1  0  0  0  0
  2  4  1  0  0  0  0
  1  5  1  0  0  0  0
  1  6  1  0  0  0  0
  1  7  1  0  0  0  0
  2  8  1  0  0  0  0
  3  9  1  0  0  0  0
  3 10  1  0  0  0  0
  3 11  1  0  0  0  0
  4 12  1  0  0  0  0
  4 13  1  0  0  0  0
M  END
>  <id_input>
4840

>  <InChIKey>
JJWLVOIRVHMVIS-UHFFFAOYSA-N

>  <substance_name>
propan-2-amine

>  <casrn>
75-31-0

>  <Molecular weight>
59.110260009765625

>  <guideline>
OECD Guideline 404 (Acute Dermal Irritation / Corrosion)

>  <species>
rabbit

>  <type_of_coverage>
occlusive

>  <max_duration(hrs)>
1.0

>  <vehicle>
unchanged (no vehicle)

>  <edema/ erythema score>
4.0

>  <max_score>
4.0

>  <reversibility>
1.0

>  <Outcome>
1

>  <StandardizerResult>
Remove Explicit Hydrogens (ID: RemoveExplicitH)
Clear Stereo (ID: ClearStereo)
Wedge Clean (ID: WedgeClean)
Mesomerize (ID: Mesomerize)
Tautomerize (ID: Tautomerize)
Add Explicit Hydrogens (ID: AddExplicitH)
Neutralize (ID: Neutralize)
Clean 2D (ID: Clean2D)


$$$$

  Mrv1812 02121911042D          

 36 35  0  0  0  0            999 V2000
    1.7660    0.3916    0.0000 C   0  0  0  0  0  0  0  0  0  0  0  0
    1.7660    1.2166    0.0000 C   0  0  0  0  0  0  0  0  0  0  0  0
    1.0515    1.6291    0.0000 C   0  0  0  0  0  0  0  0  0  0  0  0
    0.3370    1.2166    0.0000 C   0  0  0  0  0  0  0  0  0  0  0  0
   -0.3775    1.6291    0.0000 O   0  0  0  0  0  0  0  0  0  0  0  0
   -1.0919    1.2166    0.0000 C   0  0  0  0  0  0  0  0  0  0  0  0
   -1.8064    1.6291    0.0000 C   0  0  0  0  0  0  0  0  0  0  0  0
   -1.0919    0.3916    0.0000 O   0  0  0  0  0  0  0  0  0  0  0  0
    2.4804    1.6291    0.0000 C   0  0  0  0  0  0  0  0  0  0  0  0
    3.1949    1.2166    0.0000 C   0  0  0  0  0  0  0  0  0  0  0  0
    3.9094    1.6291    0.0000 C   0  0  0  0  0  0  0  0  0  0  0  0
    4.6238    1.2166    0.0000 C   0  0  0  0  0  0  0  0  0  0  0  0
    5.3383    1.6291    0.0000 C   0  0  0  0  0  0  0  0  0  0  0  0
    4.6238    0.3916    0.0000 C   0  0  0  0  0  0  0  0  0  0  0  0
    0.9410    0.3916    0.0000 H   0  0  0  0  0  0  0  0  0  0  0  0
    1.7660   -0.4334    0.0000 H   0  0  0  0  0  0  0  0  0  0  0  0
    2.5910    0.3916    0.0000 H   0  0  0  0  0  0  0  0  0  0  0  0
    1.0515    0.8041    0.0000 H   0  0  0  0  0  0  0  0  0  0  0  0
    1.4217    2.3663    0.0000 H   0  0  0  0  0  0  0  0  0  0  0  0
    0.6812    2.3663    0.0000 H   0  0  0  0  0  0  0  0  0  0  0  0
   -0.2950    0.6863    0.0000 H   0  0  0  0  0  0  0  0  0  0  0  0
    0.1938    0.4041    0.0000 H   0  0  0  0  0  0  0  0  0  0  0  0
   -1.3939    2.3436    0.0000 H   0  0  0  0  0  0  0  0  0  0  0  0
   -2.5209    2.0416    0.0000 H   0  0  0  0  0  0  0  0  0  0  0  0
   -2.2189    0.9146    0.0000 H   0  0  0  0  0  0  0  0  0  0  0  0
    2.8507    2.3663    0.0000 H   0  0  0  0  0  0  0  0  0  0  0  0
    2.1102    2.3663    0.0000 H   0  0  0  0  0  0  0  0  0  0  0  0
    2.8246    0.4793    0.0000 H   0  0  0  0  0  0  0  0  0  0  0  0
    3.5652    0.4793    0.0000 H   0  0  0  0  0  0  0  0  0  0  0  0
    3.9094    2.4541    0.0000 H   0  0  0  0  0  0  0  0  0  0  0  0
    5.7508    0.9146    0.0000 H   0  0  0  0  0  0  0  0  0  0  0  0
    6.0528    2.0416    0.0000 H   0  0  0  0  0  0  0  0  0  0  0  0
    4.9258    2.3436    0.0000 H   0  0  0  0  0  0  0  0  0  0  0  0
    3.7988    0.3916    0.0000 H   0  0  0  0  0  0  0  0  0  0  0  0
    4.6238   -0.4334    0.0000 H   0  0  0  0  0  0  0  0  0  0  0  0
    5.4488    0.3916    0.0000 H   0  0  0  0  0  0  0  0  0  0  0  0
  1  2  1  0  0  0  0
  2  3  1  0  0  0  0
  3  4  1  0  0  0  0
  4  5  1  0  0  0  0
  5  6  1  0  0  0  0
  6  7  1  0  0  0  0
  6  8  2  0  0  0  0
  2  9  1  0  0  0  0
  9 10  1  0  0  0  0
 10 11  1  0  0  0  0
 11 12  2  0  0  0  0
 12 13  1  0  0  0  0
 12 14  1  0  0  0  0
  1 15  1  0  0  0  0
  1 16  1  0  0  0  0
  1 17  1  0  0  0  0
  2 18  1  0  0  0  0
  3 19  1  0  0  0  0
  3 20  1  0  0  0  0
  4 21  1  0  0  0  0
  4 22  1  0  0  0  0
  7 23  1  0  0  0  0
  7 24  1  0  0  0  0
  7 25  1  0  0  0  0
  9 26  1  0  0  0  0
  9 27  1  0  0  0  0
 10 28  1  0  0  0  0
 10 29  1  0  0  0  0
 11 30  1  0  0  0  0
 13 31  1  0  0  0  0
 13 32  1  0  0  0  0
 13 33  1  0  0  0  0
 14 34  1  0  0  0  0
 14 35  1  0  0  0  0
 14 36  1  0  0  0  0
M  END
>  <id_input>
2685

>  <InChIKey>
JOZKFWLRHCDGJA-UHFFFAOYSA-N

>  <substance_name>
3,7-dimethyloct-6-en-1-yl acetate

>  <casrn>
150-84-5

>  <Molecular weight>
198.3018798828125

>  <guideline>
OECD Guideline 404 (Acute Dermal Irritation / Corrosion)

>  <species>
rabbit

>  <type_of_coverage>
semiocclusive

>  <max_duration(hrs)>
4.0

>  <vehicle>
unchanged (no vehicle)

>  <edema/ erythema score>
2.5

>  <max_score>
4.0

>  <reversibility>
0.0

>  <Outcome>
1

>  <StandardizerResult>
Remove Explicit Hydrogens (ID: RemoveExplicitH)
Clear Stereo (ID: ClearStereo)
Wedge Clean (ID: WedgeClean)
Mesomerize (ID: Mesomerize)
Tautomerize (ID: Tautomerize)
Add Explicit Hydrogens (ID: AddExplicitH)
Neutralize (ID: Neutralize)
Clean 2D (ID: Clean2D)


$$$$

  Mrv1812 02121911042D          

 27 27  0  0  0  0            999 V2000
    3.0739    0.0836    0.0000 C   0  0  0  0  0  0  0  0  0  0  0  0
    2.3594   -0.3289    0.0000 C   0  0  0  0  0  0  0  0  0  0  0  0
    2.3594   -1.1539    0.0000 C   0  0  0  0  0  0  0  0  0  0  0  0
    1.6450    0.0836    0.0000 C   0  0  0  0  0  0  0  0  0  0  0  0
    0.9305   -0.3289    0.0000 C   0  0  0  0  0  0  0  0  0  0  0  0
    0.2160    0.0836    0.0000 C   0  0  0  0  0  0  0  0  0  0  0  0
   -0.4985   -0.3289    0.0000 C   0  0  0  0  0  0  0  0  0  0  0  0
   -1.2129    0.0836    0.0000 C   0  0  0  0  0  0  0  0  0  0  0  0
   -0.4985   -1.1539    0.0000 C   0  0  0  0  0  0  0  0  0  0  0  0
    0.2160   -1.5664    0.0000 C   0  0  0  0  0  0  0  0  0  0  0  0
    0.9305   -1.1539    0.0000 O   0  0  0  0  0  0  0  0  0  0  0  0
    3.4864   -0.6309    0.0000 H   0  0  0  0  0  0  0  0  0  0  0  0
    3.7884    0.4961    0.0000 H   0  0  0  0  0  0  0  0  0  0  0  0
    2.6614    0.7980    0.0000 H   0  0  0  0  0  0  0  0  0  0  0  0
    1.5344   -1.1539    0.0000 H   0  0  0  0  0  0  0  0  0  0  0  0
    2.3594   -1.9789    0.0000 H   0  0  0  0  0  0  0  0  0  0  0  0
    3.1844   -1.1539    0.0000 H   0  0  0  0  0  0  0  0  0  0  0  0
    1.6450    0.9086    0.0000 H   0  0  0  0  0  0  0  0  0  0  0  0
    0.9305    0.4961    0.0000 H   0  0  0  0  0  0  0  0  0  0  0  0
    0.0728    0.8960    0.0000 H   0  0  0  0  0  0  0  0  0  0  0  0
   -0.4160    0.6139    0.0000 H   0  0  0  0  0  0  0  0  0  0  0  0
   -1.9193    0.5098    0.0000 H   0  0  0  0  0  0  0  0  0  0  0  0
   -1.8908   -0.3867    0.0000 H   0  0  0  0  0  0  0  0  0  0  0  0
   -1.3221   -1.2019    0.0000 H   0  0  0  0  0  0  0  0  0  0  0  0
   -0.9518   -1.8432    0.0000 H   0  0  0  0  0  0  0  0  0  0  0  0
   -0.1542   -2.3037    0.0000 H   0  0  0  0  0  0  0  0  0  0  0  0
    0.5863   -2.3037    0.0000 H   0  0  0  0  0  0  0  0  0  0  0  0
  1  2  1  0  0  0  0
  2  3  1  0  0  0  0
  2  4  2  0  0  0  0
  4  5  1  0  0  0  0
  6  5  1  0  0  0  0
  7  6  1  0  0  0  0
  7  8  2  0  0  0  0
  9  7  1  0  0  0  0
 10  9  1  0  0  0  0
 11 10  1  0  0  0  0
  5 11  1  0  0  0  0
  1 12  1  0  0  0  0
  1 13  1  0  0  0  0
  1 14  1  0  0  0  0
  3 15  1  0  0  0  0
  3 16  1  0  0  0  0
  3 17  1  0  0  0  0
  4 18  1  0  0  0  0
  5 19  1  0  0  0  0
  6 20  1  0  0  0  0
  6 21  1  0  0  0  0
  8 22  1  0  0  0  0
  8 23  1  0  0  0  0
  9 24  1  0  0  0  0
  9 25  1  0  0  0  0
 10 26  1  0  0  0  0
 10 27  1  0  0  0  0
M  END
>  <id_input>
2921

>  <InChIKey>
JRIATCFPZFOVNP-UHFFFAOYSA-N

>  <substance_name>
4-methylene-2-(2-methylprop-1-en-1-yl)tetrahydro-2H-pyran

>  <casrn>
60857-05-8

>  <Molecular weight>
152.2334442138672

>  <guideline>
OECD Guideline 404 (Acute Dermal Irritation / Corrosion)

>  <species>
rabbit

>  <type_of_coverage>
semiocclusive

>  <max_duration(hrs)>
4.0

>  <vehicle>
unchanged (no vehicle)

>  <edema/ erythema score>
3.0

>  <max_score>
4.0

>  <reversibility>
1.0

>  <Outcome>
1

>  <StandardizerResult>
Remove Explicit Hydrogens (ID: RemoveExplicitH)
Clear Stereo (ID: ClearStereo)
Wedge Clean (ID: WedgeClean)
Mesomerize (ID: Mesomerize)
Tautomerize (ID: Tautomerize)
Add Explicit Hydrogens (ID: AddExplicitH)
Neutralize (ID: Neutralize)
Clean 2D (ID: Clean2D)


$$$$

  Mrv1812 02121911042D          

 31 30  0  0  0  0            999 V2000
    3.6072    0.1883    0.0000 C   0  0  0  0  0  0  0  0  0  0  0  0
    2.7822    0.1883    0.0000 C   0  0  0  0  0  0  0  0  0  0  0  0
    2.3697   -0.5262    0.0000 C   0  0  0  0  0  0  0  0  0  0  0  0
    1.6552   -0.1137    0.0000 C   0  0  0  0  0  0  0  0  0  0  0  0
    3.0841   -0.9387    0.0000 O   0  0  0  0  0  0  0  0  0  0  0  0
    1.9572   -1.2407    0.0000 C   0  0  0  0  0  0  0  0  0  0  0  0
    1.1322   -1.2407    0.0000 C   0  0  0  0  0  0  0  0  0  0  0  0
    0.7197   -1.9551    0.0000 C   0  0  0  0  0  0  0  0  0  0  0  0
   -0.1053   -1.9551    0.0000 C   0  0  0  0  0  0  0  0  0  0  0  0
   -0.5178   -2.6696    0.0000 C   0  0  0  0  0  0  0  0  0  0  0  0
   -0.5178   -1.2407    0.0000 C   0  0  0  0  0  0  0  0  0  0  0  0
    3.6072   -0.6367    0.0000 H   0  0  0  0  0  0  0  0  0  0  0  0
    4.4322    0.1883    0.0000 H   0  0  0  0  0  0  0  0  0  0  0  0
    3.6072    1.0133    0.0000 H   0  0  0  0  0  0  0  0  0  0  0  0
    2.7342    1.0119    0.0000 H   0  0  0  0  0  0  0  0  0  0  0  0
    2.0929    0.6416    0.0000 H   0  0  0  0  0  0  0  0  0  0  0  0
    1.1537    0.5414    0.0000 H   0  0  0  0  0  0  0  0  0  0  0  0
    0.8581   -0.3266    0.0000 H   0  0  0  0  0  0  0  0  0  0  0  0
    1.5472   -0.9316    0.0000 H   0  0  0  0  0  0  0  0  0  0  0  0
    3.0841   -1.7637    0.0000 H   0  0  0  0  0  0  0  0  0  0  0  0
    2.0051   -2.0643    0.0000 H   0  0  0  0  0  0  0  0  0  0  0  0
    2.6464   -1.6940    0.0000 H   0  0  0  0  0  0  0  0  0  0  0  0
    0.3127   -1.1450    0.0000 H   0  0  0  0  0  0  0  0  0  0  0  0
    1.5447   -1.9551    0.0000 H   0  0  0  0  0  0  0  0  0  0  0  0
    0.7197   -2.7801    0.0000 H   0  0  0  0  0  0  0  0  0  0  0  0
   -1.2323   -2.2571    0.0000 H   0  0  0  0  0  0  0  0  0  0  0  0
   -0.9303   -3.3841    0.0000 H   0  0  0  0  0  0  0  0  0  0  0  0
    0.1966   -3.0821    0.0000 H   0  0  0  0  0  0  0  0  0  0  0  0
   -0.3735   -0.4284    0.0000 H   0  0  0  0  0  0  0  0  0  0  0  0
   -1.2548   -0.8698    0.0000 H   0  0  0  0  0  0  0  0  0  0  0  0
   -1.0843   -1.8405    0.0000 H   0  0  0  0  0  0  0  0  0  0  0  0
  1  2  1  0  0  0  0
  2  3  1  0  0  0  0
  3  4  1  0  0  0  0
  3  5  1  0  0  0  0
  3  6  1  0  0  0  0
  6  7  1  0  0  0  0
  7  8  1  0  0  0  0
  8  9  2  0  0  0  0
  9 10  1  0  0  0  0
  9 11  1  0  0  0  0
  1 12  1  0  0  0  0
  1 13  1  0  0  0  0
  1 14  1  0  0  0  0
  2 15  1  0  0  0  0
  2 16  1  0  0  0  0
  4 17  1  0  0  0  0
  4 18  1  0  0  0  0
  4 19  1  0  0  0  0
  5 20  1  0  0  0  0
  6 21  1  0  0  0  0
  6 22  1  0  0  0  0
  7 23  1  0  0  0  0
  7 24  1  0  0  0  0
  8 25  1  0  0  0  0
 10 26  1  0  0  0  0
 10 27  1  0  0  0  0
 10 28  1  0  0  0  0
 11 29  1  0  0  0  0
 11 30  1  0  0  0  0
 11 31  1  0  0  0  0
M  END
>  <id_input>
2686

>  <InChIKey>
JRTBBCBDKSRRCY-UHFFFAOYSA-N

>  <substance_name>
3,7-dimethyloct-6-en-3-ol

>  <casrn>
18479-51-1

>  <Molecular weight>
156.26519775390625

>  <guideline>
OECD Guideline 404 (Acute Dermal Irritation / Corrosion)

>  <species>
rabbit

>  <type_of_coverage>
semiocclusive

>  <max_duration(hrs)>
4.0

>  <vehicle>
unchanged (no vehicle)

>  <edema/ erythema score>
3.2

>  <max_score>
4.0

>  <reversibility>
0.0

>  <Outcome>
1

>  <StandardizerResult>
Remove Explicit Hydrogens (ID: RemoveExplicitH)
Clear Stereo (ID: ClearStereo)
Wedge Clean (ID: WedgeClean)
Mesomerize (ID: Mesomerize)
Tautomerize (ID: Tautomerize)
Add Explicit Hydrogens (ID: AddExplicitH)
Neutralize (ID: Neutralize)
Clean 2D (ID: Clean2D)


$$$$

  Mrv1812 02121911042D          

 39 38  0  0  0  0            999 V2000
   -3.6489   -0.2916    0.0000 C   0  0  0  0  0  0  0  0  0  0  0  0
   -2.9344    0.1209    0.0000 C   0  0  0  0  0  0  0  0  0  0  0  0
   -2.9344    0.9459    0.0000 C   0  0  0  0  0  0  0  0  0  0  0  0
   -2.2199   -0.2916    0.0000 C   0  0  0  0  0  0  0  0  0  0  0  0
   -1.5054    0.1209    0.0000 C   0  0  0  0  0  0  0  0  0  0  0  0
   -0.7910   -0.2916    0.0000 C   0  0  0  0  0  0  0  0  0  0  0  0
   -0.0765    0.1209    0.0000 C   0  0  0  0  0  0  0  0  0  0  0  0
   -0.0765    0.9459    0.0000 C   0  0  0  0  0  0  0  0  0  0  0  0
    0.6380   -0.2916    0.0000 C   0  0  0  0  0  0  0  0  0  0  0  0
    1.3524    0.1209    0.0000 C   0  0  0  0  0  0  0  0  0  0  0  0
    2.0669   -0.2916    0.0000 C   0  0  0  0  0  0  0  0  0  0  0  0
    2.7814    0.1209    0.0000 C   0  0  0  0  0  0  0  0  0  0  0  0
    2.7814    0.9459    0.0000 C   0  0  0  0  0  0  0  0  0  0  0  0
    3.4959   -0.2916    0.0000 C   0  0  0  0  0  0  0  0  0  0  0  0
    4.2103    0.1209    0.0000 C   0  0  0  0  0  0  0  0  0  0  0  0
   -4.0614    0.4229    0.0000 H   0  0  0  0  0  0  0  0  0  0  0  0
   -4.3633   -0.7041    0.0000 H   0  0  0  0  0  0  0  0  0  0  0  0
   -3.2364   -1.0060    0.0000 H   0  0  0  0  0  0  0  0  0  0  0  0
   -2.1094    0.9459    0.0000 H   0  0  0  0  0  0  0  0  0  0  0  0
   -2.9344    1.7709    0.0000 H   0  0  0  0  0  0  0  0  0  0  0  0
   -3.7594    0.9459    0.0000 H   0  0  0  0  0  0  0  0  0  0  0  0
   -2.2199   -1.1166    0.0000 H   0  0  0  0  0  0  0  0  0  0  0  0
   -1.1352    0.8582    0.0000 H   0  0  0  0  0  0  0  0  0  0  0  0
   -1.8757    0.8582    0.0000 H   0  0  0  0  0  0  0  0  0  0  0  0
   -1.1612   -1.0288    0.0000 H   0  0  0  0  0  0  0  0  0  0  0  0
   -0.4207   -1.0288    0.0000 H   0  0  0  0  0  0  0  0  0  0  0  0
    0.7485    0.9459    0.0000 H   0  0  0  0  0  0  0  0  0  0  0  0
   -0.0765    1.7709    0.0000 H   0  0  0  0  0  0  0  0  0  0  0  0
   -0.9015    0.9459    0.0000 H   0  0  0  0  0  0  0  0  0  0  0  0
    0.6380   -1.1166    0.0000 H   0  0  0  0  0  0  0  0  0  0  0  0
    1.7227    0.8582    0.0000 H   0  0  0  0  0  0  0  0  0  0  0  0
    0.9822    0.8582    0.0000 H   0  0  0  0  0  0  0  0  0  0  0  0
    1.6967   -1.0288    0.0000 H   0  0  0  0  0  0  0  0  0  0  0  0
    2.4372   -1.0288    0.0000 H   0  0  0  0  0  0  0  0  0  0  0  0
    3.4959    1.3584    0.0000 H   0  0  0  0  0  0  0  0  0  0  0  0
    2.0669    1.3584    0.0000 H   0  0  0  0  0  0  0  0  0  0  0  0
    3.4959   -1.1166    0.0000 H   0  0  0  0  0  0  0  0  0  0  0  0
    4.9248   -0.2916    0.0000 H   0  0  0  0  0  0  0  0  0  0  0  0
    4.2103    0.9459    0.0000 H   0  0  0  0  0  0  0  0  0  0  0  0
  1  2  1  0  0  0  0
  2  3  1  0  0  0  0
  2  4  2  0  0  0  0
  4  5  1  0  0  0  0
  5  6  1  0  0  0  0
  6  7  1  0  0  0  0
  7  8  1  0  0  0  0
  7  9  2  0  0  0  0
  9 10  1  4  0  0  0
 10 11  1  0  0  0  0
 11 12  1  0  0  0  0
 12 13  2  0  0  0  0
 12 14  1  0  0  0  0
 14 15  2  0  0  0  0
  1 16  1  0  0  0  0
  1 17  1  0  0  0  0
  1 18  1  0  0  0  0
  3 19  1  0  0  0  0
  3 20  1  0  0  0  0
  3 21  1  0  0  0  0
  4 22  1  0  0  0  0
  5 23  1  0  0  0  0
  5 24  1  0  0  0  0
  6 25  1  0  0  0  0
  6 26  1  0  0  0  0
  8 27  1  0  0  0  0
  8 28  1  0  0  0  0
  8 29  1  0  0  0  0
  9 30  1  0  0  0  0
 10 31  1  0  0  0  0
 10 32  1  0  0  0  0
 11 33  1  0  0  0  0
 11 34  1  0  0  0  0
 13 35  1  0  0  0  0
 13 36  1  0  0  0  0
 14 37  1  0  0  0  0
 15 38  1  0  0  0  0
 15 39  1  0  0  0  0
M  END
>  <id_input>
134

>  <InChIKey>
JSNRRGGBADWTMC-UHFFFAOYSA-N

>  <substance_name>
(6E)-7,11-dimethyl-3-methylidenedodeca-1,6,10-triene

>  <casrn>
18794-84-8

>  <Molecular weight>
204.35105895996094

>  <guideline>
EPA OPPTS 870.2500 (Acute Dermal Irritation)

>  <species>
rabbit

>  <type_of_coverage>
semiocclusive

>  <max_duration(hrs)>
4.0

>  <vehicle>
unchanged (no vehicle)

>  <edema/ erythema score>
2.0

>  <max_score>
2.0

>  <reversibility>
0.0

>  <Outcome>
1

>  <StandardizerResult>
Remove Explicit Hydrogens (ID: RemoveExplicitH)
Clear Stereo (ID: ClearStereo)
Wedge Clean (ID: WedgeClean)
Mesomerize (ID: Mesomerize)
Tautomerize (ID: Tautomerize)
Add Explicit Hydrogens (ID: AddExplicitH)
Neutralize (ID: Neutralize)
Clean 2D (ID: Clean2D)


$$$$

  Mrv1812 02121911042D          

 28 28  0  0  0  0            999 V2000
    0.8616    2.0019    0.0000 C   0  0  0  0  0  0  0  0  0  0  0  0
    0.5794    1.2266    0.0000 C   0  0  0  0  0  0  0  0  0  0  0  0
    1.3919    1.0834    0.0000 C   0  0  0  0  0  0  0  0  0  0  0  0
   -0.1350    1.6391    0.0000 C   0  0  0  0  0  0  0  0  0  0  0  0
   -0.8495    1.2266    0.0000 C   0  0  0  0  0  0  0  0  0  0  0  0
   -1.5640    1.6391    0.0000 O   0  0  0  0  0  0  0  0  0  0  0  0
   -0.8495    0.4016    0.0000 C   0  0  0  0  0  0  0  0  0  0  0  0
   -0.1350   -0.0109    0.0000 C   0  0  0  0  0  0  0  0  0  0  0  0
   -0.6653   -0.6429    0.0000 C   0  0  0  0  0  0  0  0  0  0  0  0
    0.3953   -0.6429    0.0000 C   0  0  0  0  0  0  0  0  0  0  0  0
    0.5794    0.4016    0.0000 N   0  0  0  0  0  0  0  0  0  0  0  0
    1.6368    1.7197    0.0000 H   0  0  0  0  0  0  0  0  0  0  0  0
    1.1438    2.7771    0.0000 H   0  0  0  0  0  0  0  0  0  0  0  0
    0.0864    2.2840    0.0000 H   0  0  0  0  0  0  0  0  0  0  0  0
    0.9156    0.4097    0.0000 H   0  0  0  0  0  0  0  0  0  0  0  0
    1.7978    0.3651    0.0000 H   0  0  0  0  0  0  0  0  0  0  0  0
    2.2147    1.1439    0.0000 H   0  0  0  0  0  0  0  0  0  0  0  0
   -0.7719    2.1636    0.0000 H   0  0  0  0  0  0  0  0  0  0  0  0
   -0.1350    0.8141    0.0000 H   0  0  0  0  0  0  0  0  0  0  0  0
   -1.6731    0.3536    0.0000 H   0  0  0  0  0  0  0  0  0  0  0  0
   -1.3029   -0.2877    0.0000 H   0  0  0  0  0  0  0  0  0  0  0  0
   -1.3357   -1.1238    0.0000 H   0  0  0  0  0  0  0  0  0  0  0  0
   -0.5159   -1.4542    0.0000 H   0  0  0  0  0  0  0  0  0  0  0  0
    0.1324   -0.8534    0.0000 H   0  0  0  0  0  0  0  0  0  0  0  0
    0.6297   -1.4338    0.0000 H   0  0  0  0  0  0  0  0  0  0  0  0
    1.2162   -0.7242    0.0000 H   0  0  0  0  0  0  0  0  0  0  0  0
    0.7804    0.0867    0.0000 H   0  0  0  0  0  0  0  0  0  0  0  0
    0.3837   -0.3998    0.0000 H   0  0  0  0  0  0  0  0  0  0  0  0
  1  2  1  0  0  0  0
  2  3  1  0  0  0  0
  4  2  1  0  0  0  0
  5  4  1  0  0  0  0
  5  6  2  0  0  0  0
  7  5  1  0  0  0  0
  8  7  1  0  0  0  0
  8  9  1  0  0  0  0
  8 10  1  0  0  0  0
 11  8  1  0  0  0  0
  2 11  1  0  0  0  0
  1 12  1  0  0  0  0
  1 13  1  0  0  0  0
  1 14  1  0  0  0  0
  3 15  1  0  0  0  0
  3 16  1  0  0  0  0
  3 17  1  0  0  0  0
  4 18  1  0  0  0  0
  4 19  1  0  0  0  0
  7 20  1  0  0  0  0
  7 21  1  0  0  0  0
  9 22  1  0  0  0  0
  9 23  1  0  0  0  0
  9 24  1  0  0  0  0
 10 25  1  0  0  0  0
 10 26  1  0  0  0  0
 10 27  1  0  0  0  0
 11 28  1  0  0  0  0
M  END
>  <id_input>
2087, 2088

>  <InChIKey>
JWUXJYZVKZKLTJ-UHFFFAOYSA-N

>  <substance_name>
2,2,6,6-tetramethylpiperidin-4-one

>  <casrn>
826-36-8

>  <Molecular weight>
155.2373809814453

>  <guideline>
OECD Guideline 404 (Acute Dermal Irritation / Corrosion)

>  <species>
rabbit

>  <type_of_coverage>
occlusive

>  <max_duration(hrs)>
4.0

>  <vehicle>
other: distilled water

>  <edema/ erythema score>
4.0

>  <max_score>
4.0

>  <reversibility>
0.5

>  <Outcome>
1

>  <StandardizerResult>
Remove Explicit Hydrogens (ID: RemoveExplicitH)
Clear Stereo (ID: ClearStereo)
Wedge Clean (ID: WedgeClean)
Mesomerize (ID: Mesomerize)
Tautomerize (ID: Tautomerize)
Add Explicit Hydrogens (ID: AddExplicitH)
Neutralize (ID: Neutralize)
Clean 2D (ID: Clean2D)


$$$$

  Mrv1812 02121911042D          

 34 33  0  0  0  0            999 V2000
    2.2057    1.8784    0.0000 C   0  0  0  0  0  0  0  0  0  0  0  0
    1.7932    1.1640    0.0000 C   0  0  0  0  0  0  0  0  0  0  0  0
    2.2057    0.4495    0.0000 C   0  0  0  0  0  0  0  0  0  0  0  0
    0.9682    1.1640    0.0000 C   0  0  0  0  0  0  0  0  0  0  0  0
    0.5557    0.4495    0.0000 C   0  0  0  0  0  0  0  0  0  0  0  0
   -0.2693    0.4495    0.0000 C   0  0  0  0  0  0  0  0  0  0  0  0
   -0.6818   -0.2650    0.0000 C   0  0  0  0  0  0  0  0  0  0  0  0
   -0.2693   -0.9795    0.0000 C   0  0  0  0  0  0  0  0  0  0  0  0
   -1.5068   -0.2650    0.0000 C   0  0  0  0  0  0  0  0  0  0  0  0
   -1.9193   -0.9795    0.0000 C   0  0  0  0  0  0  0  0  0  0  0  0
   -2.7443   -0.9795    0.0000 C   0  0  0  0  0  0  0  0  0  0  0  0
   -3.1568   -1.6939    0.0000 C   0  0  0  0  0  0  0  0  0  0  0  0
   -2.7443   -2.4084    0.0000 C   0  0  0  0  0  0  0  0  0  0  0  0
   -3.9818   -1.6939    0.0000 O   0  0  0  0  0  0  0  0  0  0  0  0
    2.9202    1.4659    0.0000 H   0  0  0  0  0  0  0  0  0  0  0  0
    2.6182    2.5929    0.0000 H   0  0  0  0  0  0  0  0  0  0  0  0
    1.4913    2.2909    0.0000 H   0  0  0  0  0  0  0  0  0  0  0  0
    1.4913    0.0370    0.0000 H   0  0  0  0  0  0  0  0  0  0  0  0
    2.6182   -0.2650    0.0000 H   0  0  0  0  0  0  0  0  0  0  0  0
    2.9202    0.8620    0.0000 H   0  0  0  0  0  0  0  0  0  0  0  0
    0.5557    1.8784    0.0000 H   0  0  0  0  0  0  0  0  0  0  0  0
    0.6037   -0.3741    0.0000 H   0  0  0  0  0  0  0  0  0  0  0  0
    1.2450   -0.0039    0.0000 H   0  0  0  0  0  0  0  0  0  0  0  0
   -0.3172    1.2731    0.0000 H   0  0  0  0  0  0  0  0  0  0  0  0
   -0.9585    0.9028    0.0000 H   0  0  0  0  0  0  0  0  0  0  0  0
   -0.9837   -1.3920    0.0000 H   0  0  0  0  0  0  0  0  0  0  0  0
    0.1432   -1.6939    0.0000 H   0  0  0  0  0  0  0  0  0  0  0  0
    0.4452   -0.5670    0.0000 H   0  0  0  0  0  0  0  0  0  0  0  0
   -1.9193    0.4495    0.0000 H   0  0  0  0  0  0  0  0  0  0  0  0
   -1.5068   -1.6939    0.0000 H   0  0  0  0  0  0  0  0  0  0  0  0
   -3.1568   -0.2650    0.0000 H   0  0  0  0  0  0  0  0  0  0  0  0
   -3.4587   -2.8209    0.0000 H   0  0  0  0  0  0  0  0  0  0  0  0
   -2.3318   -3.1229    0.0000 H   0  0  0  0  0  0  0  0  0  0  0  0
   -2.0298   -1.9959    0.0000 H   0  0  0  0  0  0  0  0  0  0  0  0
  1  2  1  0  0  0  0
  2  3  1  0  0  0  0
  2  4  2  0  0  0  0
  4  5  1  0  0  0  0
  5  6  1  0  0  0  0
  6  7  1  0  0  0  0
  7  8  1  0  0  0  0
  7  9  2  0  0  0  0
  9 10  1  4  0  0  0
 10 11  2  0  0  0  0
 11 12  1  4  0  0  0
 12 13  1  0  0  0  0
 12 14  2  0  0  0  0
  1 15  1  0  0  0  0
  1 16  1  0  0  0  0
  1 17  1  0  0  0  0
  3 18  1  0  0  0  0
  3 19  1  0  0  0  0
  3 20  1  0  0  0  0
  4 21  1  0  0  0  0
  5 22  1  0  0  0  0
  5 23  1  0  0  0  0
  6 24  1  0  0  0  0
  6 25  1  0  0  0  0
  8 26  1  0  0  0  0
  8 27  1  0  0  0  0
  8 28  1  0  0  0  0
  9 29  1  0  0  0  0
 10 30  1  0  0  0  0
 11 31  1  0  0  0  0
 13 32  1  0  0  0  0
 13 33  1  0  0  0  0
 13 34  1  0  0  0  0
M  END
>  <id_input>
2989

>  <InChIKey>
JXJIQCXXJGRKRJ-UHFFFAOYSA-N

>  <substance_name>
6,10-dimethylundeca-3,5,9-trien-2-one

>  <casrn>
141-10-6

>  <Molecular weight>
192.29730224609375

>  <guideline>
OECD Guideline 404 (Acute Dermal Irritation / Corrosion)

>  <species>
rabbit

>  <type_of_coverage>
occlusive

>  <max_duration(hrs)>
4.0

>  <vehicle>
unchanged (no vehicle)

>  <edema/ erythema score>
2.9

>  <max_score>
3.0

>  <reversibility>
1.0

>  <Outcome>
1

>  <StandardizerResult>
Remove Explicit Hydrogens (ID: RemoveExplicitH)
Clear Stereo (ID: ClearStereo)
Wedge Clean (ID: WedgeClean)
Mesomerize (ID: Mesomerize)
Tautomerize (ID: Tautomerize)
Add Explicit Hydrogens (ID: AddExplicitH)
Neutralize (ID: Neutralize)
Clean 2D (ID: Clean2D)


$$$$

  Mrv1812 02121911042D          

 33 32  0  0  0  0            999 V2000
   -0.5016   -1.7190    0.0000 C   0  0  0  0  0  0  0  0  0  0  0  0
    0.2129   -2.1315    0.0000 O   0  0  0  0  0  0  0  0  0  0  0  0
    0.9273   -1.7190    0.0000 Si  0  0  0  0  0  4  0  0  0  0  0  0
    1.6418   -1.3065    0.0000 C   0  0  0  0  0  0  0  0  0  0  0  0
    2.3563   -1.7190    0.0000 C   0  0  0  0  0  0  0  0  0  0  0  0
    3.0707   -1.3065    0.0000 C   0  0  0  0  0  0  0  0  0  0  0  0
    3.7852   -1.7190    0.0000 O   0  0  0  0  0  0  0  0  0  0  0  0
    4.4997   -1.3065    0.0000 C   0  0  0  0  0  0  0  0  0  0  0  0
    4.4997   -0.4815    0.0000 O   0  0  0  0  0  0  0  0  0  0  0  0
    5.2142   -1.7190    0.0000 C   0  0  0  0  0  0  0  0  0  0  0  0
    5.9286   -1.3065    0.0000 C   0  0  0  0  0  0  0  0  0  0  0  0
    1.3398   -2.4335    0.0000 O   0  0  0  0  0  0  0  0  0  0  0  0
    2.1648   -2.4335    0.0000 C   0  0  0  0  0  0  0  0  0  0  0  0
    0.5148   -1.0045    0.0000 O   0  0  0  0  0  0  0  0  0  0  0  0
    0.9273   -0.2901    0.0000 C   0  0  0  0  0  0  0  0  0  0  0  0
   -0.0891   -1.0045    0.0000 H   0  0  0  0  0  0  0  0  0  0  0  0
   -1.2161   -1.3065    0.0000 H   0  0  0  0  0  0  0  0  0  0  0  0
   -0.9141   -2.4335    0.0000 H   0  0  0  0  0  0  0  0  0  0  0  0
    2.0121   -0.5693    0.0000 H   0  0  0  0  0  0  0  0  0  0  0  0
    1.2715   -0.5693    0.0000 H   0  0  0  0  0  0  0  0  0  0  0  0
    3.0108   -2.2212    0.0000 H   0  0  0  0  0  0  0  0  0  0  0  0
    2.3563   -0.8940    0.0000 H   0  0  0  0  0  0  0  0  0  0  0  0
    3.7027   -0.7762    0.0000 H   0  0  0  0  0  0  0  0  0  0  0  0
    3.2140   -0.4941    0.0000 H   0  0  0  0  0  0  0  0  0  0  0  0
    5.2142   -2.5440    0.0000 H   0  0  0  0  0  0  0  0  0  0  0  0
    6.6431   -1.7190    0.0000 H   0  0  0  0  0  0  0  0  0  0  0  0
    5.9286   -0.4815    0.0000 H   0  0  0  0  0  0  0  0  0  0  0  0
    1.9580   -3.2321    0.0000 H   0  0  0  0  0  0  0  0  0  0  0  0
    2.5598   -3.1578    0.0000 H   0  0  0  0  0  0  0  0  0  0  0  0
    1.6626   -1.7790    0.0000 H   0  0  0  0  0  0  0  0  0  0  0  0
    1.6366    0.1313    0.0000 H   0  0  0  0  0  0  0  0  0  0  0  0
    0.7773    0.5212    0.0000 H   0  0  0  0  0  0  0  0  0  0  0  0
    0.1143   -0.1502    0.0000 H   0  0  0  0  0  0  0  0  0  0  0  0
  1  2  1  0  0  0  0
  2  3  1  0  0  0  0
  3  4  1  0  0  0  0
  4  5  1  0  0  0  0
  5  6  1  0  0  0  0
  6  7  1  0  0  0  0
  7  8  1  0  0  0  0
  8  9  2  0  0  0  0
  8 10  1  0  0  0  0
 10 11  2  0  0  0  0
  3 12  1  0  0  0  0
 12 13  1  0  0  0  0
  3 14  1  0  0  0  0
 14 15  1  0  0  0  0
  1 16  1  0  0  0  0
  1 17  1  0  0  0  0
  1 18  1  0  0  0  0
  4 19  1  0  0  0  0
  4 20  1  0  0  0  0
  5 21  1  0  0  0  0
  5 22  1  0  0  0  0
  6 23  1  0  0  0  0
  6 24  1  0  0  0  0
 10 25  1  0  0  0  0
 11 26  1  0  0  0  0
 11 27  1  0  0  0  0
 13 28  1  0  0  0  0
 13 29  1  0  0  0  0
 13 30  1  0  0  0  0
 15 31  1  0  0  0  0
 15 32  1  0  0  0  0
 15 33  1  0  0  0  0
M  END
>  <id_input>
2706

>  <InChIKey>
KBQVDAIIQCXKPI-UHFFFAOYSA-N

>  <substance_name>
3-(trimethoxysilyl)propyl prop-2-enoate

>  <casrn>
4369-14-6

>  <Molecular weight>
234.3217315673828

>  <guideline>
EPA OTS 798.4470 (Acute Dermal Irritation)

>  <species>
rabbit

>  <type_of_coverage>
semiocclusive

>  <max_duration(hrs)>
4.0

>  <vehicle>
unchanged (no vehicle)

>  <edema/ erythema score>
3.1

>  <max_score>
4.0

>  <reversibility>
1.0

>  <Outcome>
1

>  <StandardizerResult>
Remove Explicit Hydrogens (ID: RemoveExplicitH)
Clear Stereo (ID: ClearStereo)
Wedge Clean (ID: WedgeClean)
Mesomerize (ID: Mesomerize)
Tautomerize (ID: Tautomerize)
Add Explicit Hydrogens (ID: AddExplicitH)
Neutralize (ID: Neutralize)
Clean 2D (ID: Clean2D)


$$$$

  Mrv1812 02121911042D          

 31 30  0  0  0  0            999 V2000
    4.1515    2.3424    0.0000 C   0  0  0  0  0  0  0  0  0  0  0  0
    3.4370    1.9299    0.0000 C   0  0  0  0  0  0  0  0  0  0  0  0
    3.4370    1.1049    0.0000 O   0  0  0  0  0  0  0  0  0  0  0  0
    2.7226    0.6924    0.0000 Si  0  0  0  0  0  4  0  0  0  0  0  0
    2.3101    1.4069    0.0000 C   0  0  0  0  0  0  0  0  0  0  0  0
    2.0081    0.2799    0.0000 C   0  0  0  0  0  0  0  0  0  0  0  0
    1.2936    0.6924    0.0000 C   0  0  0  0  0  0  0  0  0  0  0  0
    1.2936    1.5174    0.0000 C   0  0  0  0  0  0  0  0  0  0  0  0
    0.5792    1.9299    0.0000 Cl  0  0  0  0  0  0  0  0  0  0  0  0
    3.1351   -0.0221    0.0000 O   0  0  0  0  0  0  0  0  0  0  0  0
    2.7226   -0.7365    0.0000 C   0  0  0  0  0  0  0  0  0  0  0  0
    1.8976   -0.7365    0.0000 C   0  0  0  0  0  0  0  0  0  0  0  0
    4.5640    1.6279    0.0000 H   0  0  0  0  0  0  0  0  0  0  0  0
    4.8660    2.7549    0.0000 H   0  0  0  0  0  0  0  0  0  0  0  0
    3.7390    3.0569    0.0000 H   0  0  0  0  0  0  0  0  0  0  0  0
    2.9837    2.6192    0.0000 H   0  0  0  0  0  0  0  0  0  0  0  0
    2.6134    1.9779    0.0000 H   0  0  0  0  0  0  0  0  0  0  0  0
    1.8788    2.1102    0.0000 H   0  0  0  0  0  0  0  0  0  0  0  0
    1.4852    1.3924    0.0000 H   0  0  0  0  0  0  0  0  0  0  0  0
    1.9039    0.6888    0.0000 H   0  0  0  0  0  0  0  0  0  0  0  0
    1.6378   -0.4573    0.0000 H   0  0  0  0  0  0  0  0  0  0  0  0
    2.3784   -0.4573    0.0000 H   0  0  0  0  0  0  0  0  0  0  0  0
    0.4700    0.6444    0.0000 H   0  0  0  0  0  0  0  0  0  0  0  0
    0.8403    0.0031    0.0000 H   0  0  0  0  0  0  0  0  0  0  0  0
    0.5792    1.1049    0.0000 H   0  0  0  0  0  0  0  0  0  0  0  0
    1.1833    2.3350    0.0000 H   0  0  0  0  0  0  0  0  0  0  0  0
    2.7705   -1.5601    0.0000 H   0  0  0  0  0  0  0  0  0  0  0  0
    3.4118   -1.1899    0.0000 H   0  0  0  0  0  0  0  0  0  0  0  0
    1.0844   -0.8755    0.0000 H   0  0  0  0  0  0  0  0  0  0  0  0
    1.5681   -1.4929    0.0000 H   0  0  0  0  0  0  0  0  0  0  0  0
    2.3497   -1.4266    0.0000 H   0  0  0  0  0  0  0  0  0  0  0  0
  1  2  1  0  0  0  0
  2  3  1  0  0  0  0
  3  4  1  0  0  0  0
  4  5  1  0  0  0  0
  4  6  1  0  0  0  0
  6  7  1  0  0  0  0
  7  8  1  0  0  0  0
  8  9  1  0  0  0  0
  4 10  1  0  0  0  0
 10 11  1  0  0  0  0
 11 12  1  0  0  0  0
  1 13  1  0  0  0  0
  1 14  1  0  0  0  0
  1 15  1  0  0  0  0
  2 16  1  0  0  0  0
  2 17  1  0  0  0  0
  5 18  1  0  0  0  0
  5 19  1  0  0  0  0
  5 20  1  0  0  0  0
  6 21  1  0  0  0  0
  6 22  1  0  0  0  0
  7 23  1  0  0  0  0
  7 24  1  0  0  0  0
  8 25  1  0  0  0  0
  8 26  1  0  0  0  0
 11 27  1  0  0  0  0
 11 28  1  0  0  0  0
 12 29  1  0  0  0  0
 12 30  1  0  0  0  0
 12 31  1  0  0  0  0
M  END
>  <id_input>
114

>  <InChIKey>
KEZMLECYELSZDC-UHFFFAOYSA-N

>  <substance_name>
(4-chloro-1,1-diethoxybutyl)silane

>  <casrn>
13501-76-3

>  <Molecular weight>
210.7737579345703

>  <guideline>
OECD Guideline 404 (Acute Dermal Irritation / Corrosion)

>  <species>
rabbit

>  <type_of_coverage>
semiocclusive

>  <max_duration(hrs)>
4.0

>  <vehicle>
unchanged (no vehicle)

>  <edema/ erythema score>
3.33333333333333

>  <max_score>
4.0

>  <reversibility>
0.0

>  <Outcome>
1

>  <StandardizerResult>
Remove Explicit Hydrogens (ID: RemoveExplicitH)
Clear Stereo (ID: ClearStereo)
Wedge Clean (ID: WedgeClean)
Mesomerize (ID: Mesomerize)
Tautomerize (ID: Tautomerize)
Add Explicit Hydrogens (ID: AddExplicitH)
Neutralize (ID: Neutralize)
Clean 2D (ID: Clean2D)


$$$$

  Mrv1812 02121911042D          

 44 43  0  0  0  0            999 V2000
    1.7361    6.0756    0.0000 C   0  0  0  0  0  0  0  0  0  0  0  0
    2.1486    5.3612    0.0000 C   0  0  0  0  0  0  0  0  0  0  0  0
    2.9736    5.3612    0.0000 C   0  0  0  0  0  0  0  0  0  0  0  0
    1.7361    4.6467    0.0000 C   0  0  0  0  0  0  0  0  0  0  0  0
    2.1486    3.9322    0.0000 C   0  0  0  0  0  0  0  0  0  0  0  0
    2.9736    3.9322    0.0000 C   0  0  0  0  0  0  0  0  0  0  0  0
    1.7361    3.2177    0.0000 O   0  0  0  0  0  0  0  0  0  0  0  0
    2.1486    2.5033    0.0000 P   0  0  0  0  0  0  0  0  0  0  0  0
    1.4341    2.0908    0.0000 S   0  0  0  0  0  0  0  0  0  0  0  0
    2.8630    2.9158    0.0000 S   0  0  0  0  0  0  0  0  0  0  0  0
    2.5611    1.7888    0.0000 O   0  0  0  0  0  0  0  0  0  0  0  0
    2.1486    1.0743    0.0000 C   0  0  0  0  0  0  0  0  0  0  0  0
    1.3236    1.0743    0.0000 C   0  0  0  0  0  0  0  0  0  0  0  0
    2.5611    0.3599    0.0000 C   0  0  0  0  0  0  0  0  0  0  0  0
    2.1486   -0.3546    0.0000 C   0  0  0  0  0  0  0  0  0  0  0  0
    2.5611   -1.0691    0.0000 C   0  0  0  0  0  0  0  0  0  0  0  0
    1.3236   -0.3546    0.0000 C   0  0  0  0  0  0  0  0  0  0  0  0
    2.4505    6.4881    0.0000 H   0  0  0  0  0  0  0  0  0  0  0  0
    1.3236    6.7901    0.0000 H   0  0  0  0  0  0  0  0  0  0  0  0
    1.0216    5.6631    0.0000 H   0  0  0  0  0  0  0  0  0  0  0  0
    2.5611    6.0756    0.0000 H   0  0  0  0  0  0  0  0  0  0  0  0
    2.7600    4.5643    0.0000 H   0  0  0  0  0  0  0  0  0  0  0  0
    3.6880    4.9487    0.0000 H   0  0  0  0  0  0  0  0  0  0  0  0
    3.5569    5.9445    0.0000 H   0  0  0  0  0  0  0  0  0  0  0  0
    0.9988    5.0170    0.0000 H   0  0  0  0  0  0  0  0  0  0  0  0
    0.9988    4.2764    0.0000 H   0  0  0  0  0  0  0  0  0  0  0  0
    2.5611    3.2177    0.0000 H   0  0  0  0  0  0  0  0  0  0  0  0
    3.3502    3.1982    0.0000 H   0  0  0  0  0  0  0  0  0  0  0  0
    3.7945    3.8508    0.0000 H   0  0  0  0  0  0  0  0  0  0  0  0
    3.4871    4.5779    0.0000 H   0  0  0  0  0  0  0  0  0  0  0  0
    0.7196    2.5033    0.0000 H   0  0  0  0  0  0  0  0  0  0  0  0
    1.7361    1.7888    0.0000 H   0  0  0  0  0  0  0  0  0  0  0  0
    0.7402    1.6577    0.0000 H   0  0  0  0  0  0  0  0  0  0  0  0
    0.6091    0.6618    0.0000 H   0  0  0  0  0  0  0  0  0  0  0  0
    1.5371    0.2774    0.0000 H   0  0  0  0  0  0  0  0  0  0  0  0
    3.2983   -0.0104    0.0000 H   0  0  0  0  0  0  0  0  0  0  0  0
    3.2983    0.7301    0.0000 H   0  0  0  0  0  0  0  0  0  0  0  0
    2.9736   -0.3546    0.0000 H   0  0  0  0  0  0  0  0  0  0  0  0
    1.7642   -1.2826    0.0000 H   0  0  0  0  0  0  0  0  0  0  0  0
    2.5611   -1.8941    0.0000 H   0  0  0  0  0  0  0  0  0  0  0  0
    3.3579   -1.2826    0.0000 H   0  0  0  0  0  0  0  0  0  0  0  0
    0.6604    0.1361    0.0000 H   0  0  0  0  0  0  0  0  0  0  0  0
    0.6533   -0.8356    0.0000 H   0  0  0  0  0  0  0  0  0  0  0  0
    1.5762   -1.1400    0.0000 H   0  0  0  0  0  0  0  0  0  0  0  0
  1  2  1  0  0  0  0
  2  3  1  0  0  0  0
  2  4  1  0  0  0  0
  4  5  1  0  0  0  0
  5  6  1  0  0  0  0
  5  7  1  0  0  0  0
  7  8  1  0  0  0  0
  8  9  1  0  0  0  0
  8 10  2  0  0  0  0
  8 11  1  0  0  0  0
 11 12  1  0  0  0  0
 12 13  1  0  0  0  0
 12 14  1  0  0  0  0
 14 15  1  0  0  0  0
 15 16  1  0  0  0  0
 15 17  1  0  0  0  0
  1 18  1  0  0  0  0
  1 19  1  0  0  0  0
  1 20  1  0  0  0  0
  2 21  1  0  0  0  0
  3 22  1  0  0  0  0
  3 23  1  0  0  0  0
  3 24  1  0  0  0  0
  4 25  1  0  0  0  0
  4 26  1  0  0  0  0
  5 27  1  0  0  0  0
  6 28  1  0  0  0  0
  6 29  1  0  0  0  0
  6 30  1  0  0  0  0
  9 31  1  0  0  0  0
 12 32  1  0  0  0  0
 13 33  1  0  0  0  0
 13 34  1  0  0  0  0
 13 35  1  0  0  0  0
 14 36  1  0  0  0  0
 14 37  1  0  0  0  0
 15 38  1  0  0  0  0
 16 39  1  0  0  0  0
 16 40  1  0  0  0  0
 16 41  1  0  0  0  0
 17 42  1  0  0  0  0
 17 43  1  0  0  0  0
 17 44  1  0  0  0  0
M  END
>  <id_input>
6146

>  <InChIKey>
KGYKKBGZPGVFOS-UHFFFAOYSA-N

>  <substance_name>
zinc O,O,O',O'-tetrakis(1,3-dimethylbutyl) bis(phosphorodithioate)

>  <casrn>
2215-35-2

>  <Molecular weight>
297.4374084472656

>  <guideline>
OECD Guideline 404 (Acute Dermal Irritation / Corrosion)

>  <species>
rabbit

>  <type_of_coverage>
semiocclusive

>  <max_duration(hrs)>
4.0

>  <vehicle>
other: Mineral Oil

>  <edema/ erythema score>
2.8

>  <max_score>
4.0

>  <reversibility>
0.0

>  <Outcome>
1

>  <StandardizerResult>
Remove Explicit Hydrogens (ID: RemoveExplicitH)
Clear Stereo (ID: ClearStereo)
Wedge Clean (ID: WedgeClean)
Mesomerize (ID: Mesomerize)
Tautomerize (ID: Tautomerize)
Add Explicit Hydrogens (ID: AddExplicitH)
Neutralize (ID: Neutralize)
Clean 2D (ID: Clean2D)


$$$$

  Mrv1812 02121911042D          

 29 28  0  0  0  0            999 V2000
   -0.3756   -0.1310    0.0000 C   0  0  0  0  0  0  0  0  0  0  0  0
    0.3389    0.2815    0.0000 C   0  0  0  0  0  0  0  0  0  0  0  0
    1.0534   -0.1310    0.0000 C   0  0  0  0  0  0  0  0  0  0  0  0
    1.7679    0.2815    0.0000 C   0  0  0  0  0  0  0  0  0  0  0  0
    2.4823   -0.1310    0.0000 C   0  0  0  0  0  0  0  0  0  0  0  0
    2.4823   -0.9560    0.0000 C   0  0  0  0  0  0  0  0  0  0  0  0
    3.1968   -1.3685    0.0000 C   0  0  0  0  0  0  0  0  0  0  0  0
    3.1968    0.2815    0.0000 C   0  0  0  0  0  0  0  0  0  0  0  0
    3.1968    1.1065    0.0000 O   0  0  0  0  0  0  0  0  0  0  0  0
    3.9113   -0.1310    0.0000 O   0  0  0  0  0  0  0  0  0  0  0  0
    4.6257    0.2815    0.0000 C   0  0  0  0  0  0  0  0  0  0  0  0
   -0.7881    0.5835    0.0000 H   0  0  0  0  0  0  0  0  0  0  0  0
   -1.0900   -0.5435    0.0000 H   0  0  0  0  0  0  0  0  0  0  0  0
    0.0369   -0.8454    0.0000 H   0  0  0  0  0  0  0  0  0  0  0  0
    0.7092    1.0188    0.0000 H   0  0  0  0  0  0  0  0  0  0  0  0
   -0.0313    1.0188    0.0000 H   0  0  0  0  0  0  0  0  0  0  0  0
    0.6831   -0.8682    0.0000 H   0  0  0  0  0  0  0  0  0  0  0  0
    1.4236   -0.8682    0.0000 H   0  0  0  0  0  0  0  0  0  0  0  0
    2.1381    1.0188    0.0000 H   0  0  0  0  0  0  0  0  0  0  0  0
    1.3976    1.0188    0.0000 H   0  0  0  0  0  0  0  0  0  0  0  0
    1.7679   -0.5435    0.0000 H   0  0  0  0  0  0  0  0  0  0  0  0
    1.8503   -1.4863    0.0000 H   0  0  0  0  0  0  0  0  0  0  0  0
    2.3391   -1.7684    0.0000 H   0  0  0  0  0  0  0  0  0  0  0  0
    3.3577   -2.1776    0.0000 H   0  0  0  0  0  0  0  0  0  0  0  0
    4.0210   -1.4044    0.0000 H   0  0  0  0  0  0  0  0  0  0  0  0
    3.4277   -0.5764    0.0000 H   0  0  0  0  0  0  0  0  0  0  0  0
    5.0382   -0.4329    0.0000 H   0  0  0  0  0  0  0  0  0  0  0  0
    5.3402    0.6940    0.0000 H   0  0  0  0  0  0  0  0  0  0  0  0
    4.2132    0.9960    0.0000 H   0  0  0  0  0  0  0  0  0  0  0  0
  1  2  1  0  0  0  0
  2  3  1  0  0  0  0
  3  4  1  0  0  0  0
  4  5  1  0  0  0  0
  5  6  1  0  0  0  0
  6  7  1  0  0  0  0
  5  8  1  0  0  0  0
  8  9  2  0  0  0  0
  8 10  1  0  0  0  0
 10 11  1  0  0  0  0
  1 12  1  0  0  0  0
  1 13  1  0  0  0  0
  1 14  1  0  0  0  0
  2 15  1  0  0  0  0
  2 16  1  0  0  0  0
  3 17  1  0  0  0  0
  3 18  1  0  0  0  0
  4 19  1  0  0  0  0
  4 20  1  0  0  0  0
  5 21  1  0  0  0  0
  6 22  1  0  0  0  0
  6 23  1  0  0  0  0
  7 24  1  0  0  0  0
  7 25  1  0  0  0  0
  7 26  1  0  0  0  0
 11 27  1  0  0  0  0
 11 28  1  0  0  0  0
 11 29  1  0  0  0  0
M  END
>  <id_input>
4544

>  <InChIKey>
KICUISADAVMYCJ-UHFFFAOYSA-N

>  <substance_name>
methyl 2-ethylhexanoate

>  <casrn>
816-19-3

>  <Molecular weight>
158.23802185058594

>  <guideline>
EPA OPPTS 870.2500 (Acute Dermal Irritation)

>  <species>
rabbit

>  <type_of_coverage>
semiocclusive

>  <max_duration(hrs)>
4.0

>  <vehicle>
unchanged (no vehicle)

>  <edema/ erythema score>
2.74285714285714

>  <max_score>
4.0

>  <reversibility>
1.0

>  <Outcome>
1

>  <StandardizerResult>
Remove Explicit Hydrogens (ID: RemoveExplicitH)
Clear Stereo (ID: ClearStereo)
Wedge Clean (ID: WedgeClean)
Mesomerize (ID: Mesomerize)
Tautomerize (ID: Tautomerize)
Add Explicit Hydrogens (ID: AddExplicitH)
Neutralize (ID: Neutralize)
Clean 2D (ID: Clean2D)


$$$$

  Mrv1812 02121911042D          

 39 40  0  0  0  0            999 V2000
    2.8601    0.1401    0.0000 C   0  0  0  0  0  0  0  0  0  0  0  0
    2.0351    0.1401    0.0000 C   0  0  0  0  0  0  0  0  0  0  0  0
    2.0351    0.9651    0.0000 C   0  0  0  0  0  0  0  0  0  0  0  0
    2.0351   -0.6849    0.0000 C   0  0  0  0  0  0  0  0  0  0  0  0
    1.2101    0.1401    0.0000 C   0  0  0  0  0  0  0  0  0  0  0  0
    0.7976    0.8546    0.0000 C   0  0  0  0  0  0  0  0  0  0  0  0
   -0.0274    0.8546    0.0000 C   0  0  0  0  0  0  0  0  0  0  0  0
   -0.4399    0.1401    0.0000 C   0  0  0  0  0  0  0  0  0  0  0  0
   -0.0274   -0.5743    0.0000 C   0  0  0  0  0  0  0  0  0  0  0  0
    0.7976   -0.5743    0.0000 C   0  0  0  0  0  0  0  0  0  0  0  0
   -0.9248    0.8076    0.0000 O   0  0  0  0  0  0  0  0  0  0  0  0
   -1.7094    0.5526    0.0000 C   0  0  0  0  0  0  0  0  0  0  0  0
   -1.7094   -0.2724    0.0000 C   0  0  0  0  0  0  0  0  0  0  0  0
   -0.9248   -0.5273    0.0000 O   0  0  0  0  0  0  0  0  0  0  0  0
   -2.3769   -0.7573    0.0000 C   0  0  0  0  0  0  0  0  0  0  0  0
   -2.2906   -1.5778    0.0000 Cl  0  0  0  0  0  0  0  0  0  0  0  0
    2.8601   -0.6849    0.0000 H   0  0  0  0  0  0  0  0  0  0  0  0
    3.6851    0.1401    0.0000 H   0  0  0  0  0  0  0  0  0  0  0  0
    2.8601    0.9651    0.0000 H   0  0  0  0  0  0  0  0  0  0  0  0
    2.3508    1.7273    0.0000 H   0  0  0  0  0  0  0  0  0  0  0  0
    1.4517    1.5485    0.0000 H   0  0  0  0  0  0  0  0  0  0  0  0
    1.2729    0.6494    0.0000 H   0  0  0  0  0  0  0  0  0  0  0  0
    1.2729   -0.3691    0.0000 H   0  0  0  0  0  0  0  0  0  0  0  0
    1.4517   -1.2682    0.0000 H   0  0  0  0  0  0  0  0  0  0  0  0
    2.3508   -1.4471    0.0000 H   0  0  0  0  0  0  0  0  0  0  0  0
    0.3851    0.1401    0.0000 H   0  0  0  0  0  0  0  0  0  0  0  0
    0.7814    1.6794    0.0000 H   0  0  0  0  0  0  0  0  0  0  0  0
    0.2085    1.4322    0.0000 H   0  0  0  0  0  0  0  0  0  0  0  0
   -0.2574    1.6469    0.0000 H   0  0  0  0  0  0  0  0  0  0  0  0
   -0.6998    1.3326    0.0000 H   0  0  0  0  0  0  0  0  0  0  0  0
   -0.3342   -1.3402    0.0000 H   0  0  0  0  0  0  0  0  0  0  0  0
    0.2389   -1.3552    0.0000 H   0  0  0  0  0  0  0  0  0  0  0  0
    0.8532   -1.3975    0.0000 H   0  0  0  0  0  0  0  0  0  0  0  0
    1.6056   -0.7412    0.0000 H   0  0  0  0  0  0  0  0  0  0  0  0
   -2.0711    1.2941    0.0000 H   0  0  0  0  0  0  0  0  0  0  0  0
   -2.5264    0.6675    0.0000 H   0  0  0  0  0  0  0  0  0  0  0  0
   -2.4445    0.1022    0.0000 H   0  0  0  0  0  0  0  0  0  0  0  0
   -3.1741   -0.5449    0.0000 H   0  0  0  0  0  0  0  0  0  0  0  0
   -3.1220   -1.1114    0.0000 H   0  0  0  0  0  0  0  0  0  0  0  0
  1  2  1  0  0  0  0
  2  3  1  0  0  0  0
  2  4  1  0  0  0  0
  2  5  1  0  0  0  0
  6  5  1  0  0  0  0
  7  6  1  0  0  0  0
  8  7  1  0  0  0  0
  9  8  1  0  0  0  0
 10  9  1  0  0  0  0
 11  8  1  0  0  0  0
 12 11  1  0  0  0  0
 13 12  1  0  0  0  0
 14 13  1  0  0  0  0
 13 15  1  0  0  0  0
 15 16  1  0  0  0  0
  5 10  1  0  0  0  0
  8 14  1  0  0  0  0
  1 17  1  0  0  0  0
  1 18  1  0  0  0  0
  1 19  1  0  0  0  0
  3 20  1  0  0  0  0
  3 21  1  0  0  0  0
  3 22  1  0  0  0  0
  4 23  1  0  0  0  0
  4 24  1  0  0  0  0
  4 25  1  0  0  0  0
  5 26  1  0  0  0  0
  6 27  1  0  0  0  0
  6 28  1  0  0  0  0
  7 29  1  0  0  0  0
  7 30  1  0  0  0  0
  9 31  1  0  0  0  0
  9 32  1  0  0  0  0
 10 33  1  0  0  0  0
 10 34  1  0  0  0  0
 12 35  1  0  0  0  0
 12 36  1  0  0  0  0
 13 37  1  0  0  0  0
 15 38  1  0  0  0  0
 15 39  1  0  0  0  0
M  END
>  <id_input>
5250

>  <InChIKey>
KIXLXDKXQXRUSB-UHFFFAOYSA-N

>  <substance_name>
unnamed [118135-28-7]

>  <casrn>
118135-28-7

>  <Molecular weight>
246.77352905273438

>  <guideline>
OECD Guideline 404 (Acute Dermal Irritation / Corrosion)

>  <species>
rabbit

>  <type_of_coverage>
semiocclusive

>  <max_duration(hrs)>
4.0

>  <vehicle>
unchanged (no vehicle)

>  <edema/ erythema score>
2.9

>  <max_score>
3.0

>  <reversibility>
1.0

>  <Outcome>
1

>  <StandardizerResult>
Remove Explicit Hydrogens (ID: RemoveExplicitH)
Clear Stereo (ID: ClearStereo)
Wedge Clean (ID: WedgeClean)
Mesomerize (ID: Mesomerize)
Tautomerize (ID: Tautomerize)
Add Explicit Hydrogens (ID: AddExplicitH)
Neutralize (ID: Neutralize)
Clean 2D (ID: Clean2D)


$$$$

  Mrv1812 02121911042D          

 40 39  0  0  0  0            999 V2000
    4.1004    2.4329    0.0000 C   0  0  0  0  0  0  0  0  0  0  0  0
    3.6879    1.7185    0.0000 C   0  0  0  0  0  0  0  0  0  0  0  0
    2.8629    1.7185    0.0000 O   0  0  0  0  0  0  0  0  0  0  0  0
    2.4504    1.0040    0.0000 Si  0  0  0  0  0  4  0  0  0  0  0  0
    2.0379    0.2895    0.0000 O   0  0  0  0  0  0  0  0  0  0  0  0
    1.2129    0.2895    0.0000 C   0  0  0  0  0  0  0  0  0  0  0  0
    0.8004   -0.4250    0.0000 C   0  0  0  0  0  0  0  0  0  0  0  0
    1.7359    1.4165    0.0000 O   0  0  0  0  0  0  0  0  0  0  0  0
    1.0214    1.0040    0.0000 C   0  0  0  0  0  0  0  0  0  0  0  0
    0.3069    1.4165    0.0000 C   0  0  0  0  0  0  0  0  0  0  0  0
    3.1648    0.5915    0.0000 N   0  0  0  0  0  0  0  0  0  0  0  0
    3.8793    1.0040    0.0000 C   0  0  0  0  0  0  0  0  0  0  0  0
    4.5938    0.5915    0.0000 C   0  0  0  0  0  0  0  0  0  0  0  0
    3.1648   -0.2335    0.0000 C   0  0  0  0  0  0  0  0  0  0  0  0
    3.8793   -0.6460    0.0000 C   0  0  0  0  0  0  0  0  0  0  0  0
    4.8148    2.0204    0.0000 H   0  0  0  0  0  0  0  0  0  0  0  0
    4.5129    3.1474    0.0000 H   0  0  0  0  0  0  0  0  0  0  0  0
    3.3859    2.8454    0.0000 H   0  0  0  0  0  0  0  0  0  0  0  0
    4.5058    1.6108    0.0000 H   0  0  0  0  0  0  0  0  0  0  0  0
    3.2754    2.4329    0.0000 H   0  0  0  0  0  0  0  0  0  0  0  0
    0.3949    0.3972    0.0000 H   0  0  0  0  0  0  0  0  0  0  0  0
    1.7151    0.9440    0.0000 H   0  0  0  0  0  0  0  0  0  0  0  0
   -0.0060   -0.5991    0.0000 H   0  0  0  0  0  0  0  0  0  0  0  0
    0.7734   -1.2495    0.0000 H   0  0  0  0  0  0  0  0  0  0  0  0
    1.5936   -0.6515    0.0000 H   0  0  0  0  0  0  0  0  0  0  0  0
    1.3036    1.7792    0.0000 H   0  0  0  0  0  0  0  0  0  0  0  0
    0.7392    1.7792    0.0000 H   0  0  0  0  0  0  0  0  0  0  0  0
   -0.0088    2.1787    0.0000 H   0  0  0  0  0  0  0  0  0  0  0  0
   -0.5149    1.3446    0.0000 H   0  0  0  0  0  0  0  0  0  0  0  0
    0.1284    0.6110    0.0000 H   0  0  0  0  0  0  0  0  0  0  0  0
    3.1171    1.3197    0.0000 H   0  0  0  0  0  0  0  0  0  0  0  0
    3.8793    0.1790    0.0000 H   0  0  0  0  0  0  0  0  0  0  0  0
    4.8073   -0.2054    0.0000 H   0  0  0  0  0  0  0  0  0  0  0  0
    5.4188    0.5915    0.0000 H   0  0  0  0  0  0  0  0  0  0  0  0
    4.8073    1.3884    0.0000 H   0  0  0  0  0  0  0  0  0  0  0  0
    2.3412   -0.2815    0.0000 H   0  0  0  0  0  0  0  0  0  0  0  0
    2.7115   -0.9228    0.0000 H   0  0  0  0  0  0  0  0  0  0  0  0
    3.2959   -1.2294    0.0000 H   0  0  0  0  0  0  0  0  0  0  0  0
    4.2918   -1.3605    0.0000 H   0  0  0  0  0  0  0  0  0  0  0  0
    4.6762   -0.4325    0.0000 H   0  0  0  0  0  0  0  0  0  0  0  0
  1  2  1  0  0  0  0
  2  3  1  0  0  0  0
  3  4  1  0  0  0  0
  4  5  1  0  0  0  0
  5  6  1  0  0  0  0
  6  7  1  0  0  0  0
  4  8  1  0  0  0  0
  8  9  1  0  0  0  0
  9 10  1  0  0  0  0
  4 11  1  0  0  0  0
 11 12  1  0  0  0  0
 12 13  1  0  0  0  0
 11 14  1  0  0  0  0
 14 15  1  0  0  0  0
  1 16  1  0  0  0  0
  1 17  1  0  0  0  0
  1 18  1  0  0  0  0
  2 19  1  0  0  0  0
  2 20  1  0  0  0  0
  6 21  1  0  0  0  0
  6 22  1  0  0  0  0
  7 23  1  0  0  0  0
  7 24  1  0  0  0  0
  7 25  1  0  0  0  0
  9 26  1  0  0  0  0
  9 27  1  0  0  0  0
 10 28  1  0  0  0  0
 10 29  1  0  0  0  0
 10 30  1  0  0  0  0
 12 31  1  0  0  0  0
 12 32  1  0  0  0  0
 13 33  1  0  0  0  0
 13 34  1  0  0  0  0
 13 35  1  0  0  0  0
 14 36  1  0  0  0  0
 14 37  1  0  0  0  0
 15 38  1  0  0  0  0
 15 39  1  0  0  0  0
 15 40  1  0  0  0  0
M  END
>  <id_input>
513, 588, 4151, 5383

>  <InChIKey>
KOFGHHIZTRGVAF-UHFFFAOYSA-N

>  <substance_name>
-

>  <casrn>
35077-00-0

>  <Molecular weight>
235.39590454101562

>  <guideline>
other: The United Nations Recommendations on the Transport of Dangerous Goods - Model Regulations - Fourteenth Revised Edition (ST/SGAC.10/1/Rev.14). Chapter 2.8 Class 8 - Corrosive Substances: 2.8.2.3, "Acute dermal corrosion test".

>  <species>
rabbit

>  <type_of_coverage>
semiocclusive

>  <max_duration(hrs)>
4.0

>  <vehicle>
unchanged (no vehicle)

>  <edema/ erythema score>
4.0

>  <max_score>
4.0

>  <reversibility>
1.0

>  <Outcome>
1

>  <StandardizerResult>
Remove Explicit Hydrogens (ID: RemoveExplicitH)
Clear Stereo (ID: ClearStereo)
Wedge Clean (ID: WedgeClean)
Mesomerize (ID: Mesomerize)
Tautomerize (ID: Tautomerize)
Add Explicit Hydrogens (ID: AddExplicitH)
Neutralize (ID: Neutralize)
Clean 2D (ID: Clean2D)


$$$$

  Mrv1812 02121911042D          

 19 19  0  0  0  0            999 V2000
    3.5674    0.4311    0.0000 C   0  0  0  0  0  0  0  0  0  0  0  0
    2.8529    0.8436    0.0000 C   0  0  0  0  0  0  0  0  0  0  0  0
    2.1385    0.4311    0.0000 O   0  0  0  0  0  0  0  0  0  0  0  0
    1.4240    0.8436    0.0000 C   0  0  0  0  0  0  0  0  0  0  0  0
    1.4240    1.6686    0.0000 O   0  0  0  0  0  0  0  0  0  0  0  0
    0.7095    0.4311    0.0000 C   0  0  0  0  0  0  0  0  0  0  0  0
   -0.0049    0.8436    0.0000 C   0  0  0  0  0  0  0  0  0  0  0  0
   -0.7194    0.4311    0.0000 C   0  0  0  0  0  0  0  0  0  0  0  0
   -0.7194   -0.3939    0.0000 C   0  0  0  0  0  0  0  0  0  0  0  0
   -0.0049   -0.8064    0.0000 C   0  0  0  0  0  0  0  0  0  0  0  0
    0.7095   -0.3939    0.0000 C   0  0  0  0  0  0  0  0  0  0  0  0
    3.5674   -0.3939    0.0000 H   0  0  0  0  0  0  0  0  0  0  0  0
    4.2819    0.8436    0.0000 H   0  0  0  0  0  0  0  0  0  0  0  0
    2.8529    1.6686    0.0000 H   0  0  0  0  0  0  0  0  0  0  0  0
   -0.0049    1.6686    0.0000 H   0  0  0  0  0  0  0  0  0  0  0  0
   -1.4339    0.8436    0.0000 H   0  0  0  0  0  0  0  0  0  0  0  0
   -1.4339   -0.8064    0.0000 H   0  0  0  0  0  0  0  0  0  0  0  0
   -0.0049   -1.6314    0.0000 H   0  0  0  0  0  0  0  0  0  0  0  0
    1.4240   -0.8064    0.0000 H   0  0  0  0  0  0  0  0  0  0  0  0
  1  2  2  0  0  0  0
  2  3  1  0  0  0  0
  3  4  1  0  0  0  0
  4  5  2  0  0  0  0
  4  6  1  0  0  0  0
  7  6  4  0  0  0  0
  8  7  4  0  0  0  0
  9  8  4  0  0  0  0
 10  9  4  0  0  0  0
 11 10  4  0  0  0  0
  6 11  4  0  0  0  0
  1 12  1  0  0  0  0
  1 13  1  0  0  0  0
  2 14  1  0  0  0  0
  7 15  1  0  0  0  0
  8 16  1  0  0  0  0
  9 17  1  0  0  0  0
 10 18  1  0  0  0  0
 11 19  1  0  0  0  0
M  END
>  <id_input>
4327

>  <InChIKey>
KOZCZZVUFDCZGG-UHFFFAOYSA-N

>  <substance_name>
ethenyl benzoate

>  <casrn>
769-78-8

>  <Molecular weight>
148.15863037109375

>  <guideline>
OECD Guideline 404 (Acute Dermal Irritation / Corrosion)

>  <species>
rabbit

>  <type_of_coverage>
semiocclusive

>  <max_duration(hrs)>
4.0

>  <vehicle>
unchanged (no vehicle)

>  <edema/ erythema score>
2.0

>  <max_score>
4.0

>  <reversibility>
0.0

>  <Outcome>
1

>  <StandardizerResult>
Remove Explicit Hydrogens (ID: RemoveExplicitH)
Dearomatize (ID: Dearomatize)
Clear Stereo (ID: ClearStereo)
Wedge Clean (ID: WedgeClean)
Mesomerize (ID: Mesomerize)
Tautomerize (ID: Tautomerize)
Aromatize (ID: Aromatize)
Add Explicit Hydrogens (ID: AddExplicitH)
Neutralize (ID: Neutralize)
Clean 2D (ID: Clean2D)


$$$$

  Mrv1812 02121911042D          

 15 14  0  0  0  0            999 V2000
    1.6516   -0.5404    0.0000 N   0  0  0  0  0  0  0  0  0  0  0  0
    1.2391    0.1741    0.0000 C   0  0  0  0  0  0  0  0  0  0  0  0
    0.4141    0.1741    0.0000 C   0  0  0  0  0  0  0  0  0  0  0  0
    0.0016   -0.5404    0.0000 O   0  0  0  0  0  0  0  0  0  0  0  0
    0.0016    0.8885    0.0000 C   0  0  0  0  0  0  0  0  0  0  0  0
   -0.8234    0.8885    0.0000 O   0  0  0  0  0  0  0  0  0  0  0  0
    1.2391   -1.2549    0.0000 H   0  0  0  0  0  0  0  0  0  0  0  0
    2.4766   -0.5404    0.0000 H   0  0  0  0  0  0  0  0  0  0  0  0
    1.9283    0.6274    0.0000 H   0  0  0  0  0  0  0  0  0  0  0  0
    1.2870    0.9977    0.0000 H   0  0  0  0  0  0  0  0  0  0  0  0
    0.8266   -0.5404    0.0000 H   0  0  0  0  0  0  0  0  0  0  0  0
   -0.7129   -0.9529    0.0000 H   0  0  0  0  0  0  0  0  0  0  0  0
    0.6908    1.3419    0.0000 H   0  0  0  0  0  0  0  0  0  0  0  0
    0.0495    1.7121    0.0000 H   0  0  0  0  0  0  0  0  0  0  0  0
   -1.2359    1.6030    0.0000 H   0  0  0  0  0  0  0  0  0  0  0  0
  1  2  1  0  0  0  0
  2  3  1  0  0  0  0
  3  4  1  0  0  0  0
  3  5  1  0  0  0  0
  5  6  1  0  0  0  0
  1  7  1  0  0  0  0
  1  8  1  0  0  0  0
  2  9  1  0  0  0  0
  2 10  1  0  0  0  0
  3 11  1  0  0  0  0
  4 12  1  0  0  0  0
  5 13  1  0  0  0  0
  5 14  1  0  0  0  0
  6 15  1  0  0  0  0
M  END
>  <id_input>
2729

>  <InChIKey>
KQIGMPWTAHJUMN-UHFFFAOYSA-N

>  <substance_name>
3-aminopropane-1,2-diol

>  <casrn>
616-30-8

>  <Molecular weight>
91.10906219482422

>  <guideline>
OECD Guideline 404 (Acute Dermal Irritation / Corrosion)

>  <species>
rabbit

>  <type_of_coverage>
occlusive

>  <max_duration(hrs)>
4.0

>  <vehicle>
unchanged (no vehicle)

>  <edema/ erythema score>
1.915

>  <max_score>
4.0

>  <reversibility>
0.0

>  <Outcome>
1

>  <StandardizerResult>
Remove Explicit Hydrogens (ID: RemoveExplicitH)
Clear Stereo (ID: ClearStereo)
Wedge Clean (ID: WedgeClean)
Mesomerize (ID: Mesomerize)
Tautomerize (ID: Tautomerize)
Add Explicit Hydrogens (ID: AddExplicitH)
Neutralize (ID: Neutralize)
Clean 2D (ID: Clean2D)


$$$$

  Mrv1812 02121911042D          

 31 30  0  0  0  0            999 V2000
    0.0001    0.3992    0.0000 C   0  0  0  0  0  0  0  0  0  0  0  0
    0.7145   -0.0133    0.0000 C   0  0  0  0  0  0  0  0  0  0  0  0
    1.4290    0.3992    0.0000 C   0  0  0  0  0  0  0  0  0  0  0  0
    2.1435   -0.0133    0.0000 C   0  0  0  0  0  0  0  0  0  0  0  0
    2.8580    0.3992    0.0000 C   0  0  0  0  0  0  0  0  0  0  0  0
    3.5724   -0.0133    0.0000 C   0  0  0  0  0  0  0  0  0  0  0  0
    4.2869    0.3992    0.0000 C   0  0  0  0  0  0  0  0  0  0  0  0
    5.0014   -0.0133    0.0000 C   0  0  0  0  0  0  0  0  0  0  0  0
    5.7158    0.3992    0.0000 C   0  0  0  0  0  0  0  0  0  0  0  0
    6.4303   -0.0133    0.0000 C   0  0  0  0  0  0  0  0  0  0  0  0
    7.1448    0.3992    0.0000 O   0  0  0  0  0  0  0  0  0  0  0  0
    0.4126    1.1137    0.0000 H   0  0  0  0  0  0  0  0  0  0  0  0
   -0.7144    0.8117    0.0000 H   0  0  0  0  0  0  0  0  0  0  0  0
   -0.4124   -0.3153    0.0000 H   0  0  0  0  0  0  0  0  0  0  0  0
    0.3443   -0.7505    0.0000 H   0  0  0  0  0  0  0  0  0  0  0  0
    1.0848   -0.7505    0.0000 H   0  0  0  0  0  0  0  0  0  0  0  0
    1.7993    1.1364    0.0000 H   0  0  0  0  0  0  0  0  0  0  0  0
    1.0588    1.1364    0.0000 H   0  0  0  0  0  0  0  0  0  0  0  0
    1.7732   -0.7505    0.0000 H   0  0  0  0  0  0  0  0  0  0  0  0
    2.5137   -0.7505    0.0000 H   0  0  0  0  0  0  0  0  0  0  0  0
    3.2282    1.1364    0.0000 H   0  0  0  0  0  0  0  0  0  0  0  0
    2.4877    1.1364    0.0000 H   0  0  0  0  0  0  0  0  0  0  0  0
    3.2022   -0.7505    0.0000 H   0  0  0  0  0  0  0  0  0  0  0  0
    3.9427   -0.7505    0.0000 H   0  0  0  0  0  0  0  0  0  0  0  0
    4.6572    1.1364    0.0000 H   0  0  0  0  0  0  0  0  0  0  0  0
    3.9166    1.1364    0.0000 H   0  0  0  0  0  0  0  0  0  0  0  0
    4.6311   -0.7505    0.0000 H   0  0  0  0  0  0  0  0  0  0  0  0
    5.3716   -0.7505    0.0000 H   0  0  0  0  0  0  0  0  0  0  0  0
    6.0861    1.1364    0.0000 H   0  0  0  0  0  0  0  0  0  0  0  0
    5.3456    1.1364    0.0000 H   0  0  0  0  0  0  0  0  0  0  0  0
    6.4303   -0.8383    0.0000 H   0  0  0  0  0  0  0  0  0  0  0  0
  1  2  1  0  0  0  0
  2  3  1  0  0  0  0
  3  4  1  0  0  0  0
  4  5  1  0  0  0  0
  5  6  1  0  0  0  0
  6  7  1  0  0  0  0
  7  8  1  0  0  0  0
  8  9  1  0  0  0  0
  9 10  1  0  0  0  0
 10 11  2  0  0  0  0
  1 12  1  0  0  0  0
  1 13  1  0  0  0  0
  1 14  1  0  0  0  0
  2 15  1  0  0  0  0
  2 16  1  0  0  0  0
  3 17  1  0  0  0  0
  3 18  1  0  0  0  0
  4 19  1  0  0  0  0
  4 20  1  0  0  0  0
  5 21  1  0  0  0  0
  5 22  1  0  0  0  0
  6 23  1  0  0  0  0
  6 24  1  0  0  0  0
  7 25  1  0  0  0  0
  7 26  1  0  0  0  0
  8 27  1  0  0  0  0
  8 28  1  0  0  0  0
  9 29  1  0  0  0  0
  9 30  1  0  0  0  0
 10 31  1  0  0  0  0
M  END
>  <id_input>
4082

>  <InChIKey>
KSMVZQYAVGTKIV-UHFFFAOYSA-N

>  <substance_name>
decanal

>  <casrn>
112-31-2

>  <Molecular weight>
156.26519775390625

>  <guideline>
EU Method B.4 (Acute Toxicity: Dermal Irritation / Corrosion)

>  <species>
rabbit

>  <type_of_coverage>
semiocclusive

>  <max_duration(hrs)>
4.0

>  <vehicle>
unchanged (no vehicle)

>  <edema/ erythema score>
2.11

>  <reversibility>
0.0

>  <Outcome>
1

>  <StandardizerResult>
Remove Explicit Hydrogens (ID: RemoveExplicitH)
Clear Stereo (ID: ClearStereo)
Wedge Clean (ID: WedgeClean)
Mesomerize (ID: Mesomerize)
Tautomerize (ID: Tautomerize)
Add Explicit Hydrogens (ID: AddExplicitH)
Neutralize (ID: Neutralize)
Clean 2D (ID: Clean2D)


$$$$

  Mrv1812 02121911042D          

 24 24  0  0  0  0            999 V2000
    1.9571    0.8903    0.0000 C   0  0  0  0  0  0  0  0  0  0  0  0
    1.2426    1.3028    0.0000 C   0  0  0  0  0  0  0  0  0  0  0  0
    0.5282    0.8903    0.0000 C   0  0  0  0  0  0  0  0  0  0  0  0
   -0.1863    1.3028    0.0000 C   0  0  0  0  0  0  0  0  0  0  0  0
   -0.9008    0.8903    0.0000 C   0  0  0  0  0  0  0  0  0  0  0  0
   -0.9008    0.0653    0.0000 C   0  0  0  0  0  0  0  0  0  0  0  0
   -0.1863   -0.3472    0.0000 C   0  0  0  0  0  0  0  0  0  0  0  0
    0.5282    0.0653    0.0000 C   0  0  0  0  0  0  0  0  0  0  0  0
    1.2426   -0.3472    0.0000 C   0  0  0  0  0  0  0  0  0  0  0  0
    1.9571    0.0653    0.0000 C   0  0  0  0  0  0  0  0  0  0  0  0
    2.6716    0.4778    0.0000 H   0  0  0  0  0  0  0  0  0  0  0  0
    2.6716    1.3028    0.0000 H   0  0  0  0  0  0  0  0  0  0  0  0
    1.9571    1.7153    0.0000 H   0  0  0  0  0  0  0  0  0  0  0  0
    1.0994    2.1153    0.0000 H   0  0  0  0  0  0  0  0  0  0  0  0
    0.6106    1.8331    0.0000 H   0  0  0  0  0  0  0  0  0  0  0  0
   -0.6213    2.0038    0.0000 H   0  0  0  0  0  0  0  0  0  0  0  0
   -1.6153    1.3028    0.0000 H   0  0  0  0  0  0  0  0  0  0  0  0
   -1.6153   -0.3472    0.0000 H   0  0  0  0  0  0  0  0  0  0  0  0
   -0.1863   -1.1722    0.0000 H   0  0  0  0  0  0  0  0  0  0  0  0
    0.8724   -1.0844    0.0000 H   0  0  0  0  0  0  0  0  0  0  0  0
    1.6129   -1.0844    0.0000 H   0  0  0  0  0  0  0  0  0  0  0  0
    2.1004   -0.7471    0.0000 H   0  0  0  0  0  0  0  0  0  0  0  0
    2.5891   -0.4650    0.0000 H   0  0  0  0  0  0  0  0  0  0  0  0
    1.2426    0.4778    0.0000 H   0  0  0  0  0  0  0  0  0  0  0  0
  1  2  1  0  0  0  0
  2  3  1  0  0  0  0
  4  3  4  0  0  0  0
  5  4  4  0  0  0  0
  6  5  4  0  0  0  0
  7  6  4  0  0  0  0
  8  7  4  0  0  0  0
  8  9  1  0  0  0  0
  9 10  1  0  0  0  0
  3  8  4  0  0  0  0
  1 11  1  0  0  0  0
  1 12  1  0  0  0  0
  1 13  1  0  0  0  0
  2 14  1  0  0  0  0
  2 15  1  0  0  0  0
  4 16  1  0  0  0  0
  5 17  1  0  0  0  0
  6 18  1  0  0  0  0
  7 19  1  0  0  0  0
  9 20  1  0  0  0  0
  9 21  1  0  0  0  0
 10 22  1  0  0  0  0
 10 23  1  0  0  0  0
 10 24  1  0  0  0  0
M  END
>  <id_input>
1735, 1736

>  <InChIKey>
KVNYFPKFSJIPBJ-UHFFFAOYSA-N

>  <substance_name>
1,2-diethylbenzene

>  <casrn>
25340-17-4

>  <Molecular weight>
134.21817016601562

>  <guideline>
OECD Guideline 404 (Acute Dermal Irritation / Corrosion)

>  <species>
rabbit

>  <type_of_coverage>
semiocclusive

>  <max_duration(hrs)>
4.0

>  <vehicle>
unchanged (no vehicle)

>  <edema/ erythema score>
2.14285714285714

>  <max_score>
4.0

>  <reversibility>
0.0

>  <Outcome>
1

>  <StandardizerResult>
Remove Explicit Hydrogens (ID: RemoveExplicitH)
Dearomatize (ID: Dearomatize)
Clear Stereo (ID: ClearStereo)
Wedge Clean (ID: WedgeClean)
Mesomerize (ID: Mesomerize)
Tautomerize (ID: Tautomerize)
Aromatize (ID: Aromatize)
Add Explicit Hydrogens (ID: AddExplicitH)
Neutralize (ID: Neutralize)
Clean 2D (ID: Clean2D)


$$$$

  Mrv1812 02121911042D          

 85 84  0  0  0  0            999 V2000
    4.5770   -5.5941    0.0000 C   0  0  0  0  0  0  0  0  0  0  0  0
    4.1645   -4.8796    0.0000 C   0  0  0  0  0  0  0  0  0  0  0  0
    4.5770   -4.1652    0.0000 C   0  0  0  0  0  0  0  0  0  0  0  0
    4.1645   -3.4507    0.0000 C   0  0  0  0  0  0  0  0  0  0  0  0
    4.5770   -2.7362    0.0000 O   0  0  0  0  0  0  0  0  0  0  0  0
    4.1645   -2.0218    0.0000 C   0  0  0  0  0  0  0  0  0  0  0  0
    4.5770   -1.3073    0.0000 C   0  0  0  0  0  0  0  0  0  0  0  0
    4.1645   -0.5928    0.0000 O   0  0  0  0  0  0  0  0  0  0  0  0
    4.5770    0.1217    0.0000 Si  0  0  0  0  0  4  0  0  0  0  0  0
    4.9895    0.8361    0.0000 O   0  0  0  0  0  0  0  0  0  0  0  0
    5.8145    0.8361    0.0000 C   0  0  0  0  0  0  0  0  0  0  0  0
    6.2270    0.1217    0.0000 C   0  0  0  0  0  0  0  0  0  0  0  0
    7.0520    0.1217    0.0000 O   0  0  0  0  0  0  0  0  0  0  0  0
    7.4645   -0.5928    0.0000 C   0  0  0  0  0  0  0  0  0  0  0  0
    8.2895   -0.5928    0.0000 C   0  0  0  0  0  0  0  0  0  0  0  0
    8.7020   -1.3073    0.0000 C   0  0  0  0  0  0  0  0  0  0  0  0
    9.5270   -1.3073    0.0000 C   0  0  0  0  0  0  0  0  0  0  0  0
    5.2915   -0.2908    0.0000 O   0  0  0  0  0  0  0  0  0  0  0  0
    5.2915   -1.1158    0.0000 C   0  0  0  0  0  0  0  0  0  0  0  0
    6.0060   -1.5283    0.0000 C   0  0  0  0  0  0  0  0  0  0  0  0
    6.0060   -2.3533    0.0000 O   0  0  0  0  0  0  0  0  0  0  0  0
    6.7204   -2.7658    0.0000 C   0  0  0  0  0  0  0  0  0  0  0  0
    6.7204   -3.5908    0.0000 C   0  0  0  0  0  0  0  0  0  0  0  0
    7.4349   -4.0033    0.0000 C   0  0  0  0  0  0  0  0  0  0  0  0
    7.4349   -4.8283    0.0000 C   0  0  0  0  0  0  0  0  0  0  0  0
    3.8625    0.5342    0.0000 O   0  0  0  0  0  0  0  0  0  0  0  0
    3.8625    1.3592    0.0000 C   0  0  0  0  0  0  0  0  0  0  0  0
    4.5770    1.7717    0.0000 C   0  0  0  0  0  0  0  0  0  0  0  0
    5.2915    1.3592    0.0000 O   0  0  0  0  0  0  0  0  0  0  0  0
    6.0060    1.7717    0.0000 C   0  0  0  0  0  0  0  0  0  0  0  0
    6.7204    1.3592    0.0000 C   0  0  0  0  0  0  0  0  0  0  0  0
    7.4349    1.7717    0.0000 C   0  0  0  0  0  0  0  0  0  0  0  0
    8.1494    1.3592    0.0000 C   0  0  0  0  0  0  0  0  0  0  0  0
    3.8625   -6.0066    0.0000 H   0  0  0  0  0  0  0  0  0  0  0  0
    4.9895   -6.3086    0.0000 H   0  0  0  0  0  0  0  0  0  0  0  0
    5.2915   -5.1816    0.0000 H   0  0  0  0  0  0  0  0  0  0  0  0
    3.4273   -4.5094    0.0000 H   0  0  0  0  0  0  0  0  0  0  0  0
    3.4273   -5.2499    0.0000 H   0  0  0  0  0  0  0  0  0  0  0  0
    5.3143   -4.5354    0.0000 H   0  0  0  0  0  0  0  0  0  0  0  0
    5.3143   -3.7949    0.0000 H   0  0  0  0  0  0  0  0  0  0  0  0
    3.4273   -3.0804    0.0000 H   0  0  0  0  0  0  0  0  0  0  0  0
    3.4273   -3.8210    0.0000 H   0  0  0  0  0  0  0  0  0  0  0  0
    3.4273   -1.6515    0.0000 H   0  0  0  0  0  0  0  0  0  0  0  0
    3.4273   -2.3920    0.0000 H   0  0  0  0  0  0  0  0  0  0  0  0
    5.0792   -1.9618    0.0000 H   0  0  0  0  0  0  0  0  0  0  0  0
    3.7520   -1.3073    0.0000 H   0  0  0  0  0  0  0  0  0  0  0  0
    6.6289    0.9683    0.0000 H   0  0  0  0  0  0  0  0  0  0  0  0
    5.4020    0.1217    0.0000 H   0  0  0  0  0  0  0  0  0  0  0  0
    5.9449   -0.6536    0.0000 H   0  0  0  0  0  0  0  0  0  0  0  0
    6.5092   -0.6536    0.0000 H   0  0  0  0  0  0  0  0  0  0  0  0
    7.0826   -1.3241    0.0000 H   0  0  0  0  0  0  0  0  0  0  0  0
    7.8921   -1.2984    0.0000 H   0  0  0  0  0  0  0  0  0  0  0  0
    8.9788   -0.1395    0.0000 H   0  0  0  0  0  0  0  0  0  0  0  0
    8.3375    0.2308    0.0000 H   0  0  0  0  0  0  0  0  0  0  0  0
    8.4147   -2.0806    0.0000 H   0  0  0  0  0  0  0  0  0  0  0  0
    8.9809   -2.0837    0.0000 H   0  0  0  0  0  0  0  0  0  0  0  0
   10.0700   -1.9284    0.0000 H   0  0  0  0  0  0  0  0  0  0  0  0
   10.2592   -0.9271    0.0000 H   0  0  0  0  0  0  0  0  0  0  0  0
    9.3314   -0.5058    0.0000 H   0  0  0  0  0  0  0  0  0  0  0  0
    4.8183   -0.4400    0.0000 H   0  0  0  0  0  0  0  0  0  0  0  0
    4.5162   -0.8337    0.0000 H   0  0  0  0  0  0  0  0  0  0  0  0
    6.7886   -1.7894    0.0000 H   0  0  0  0  0  0  0  0  0  0  0  0
    6.7685   -1.2134    0.0000 H   0  0  0  0  0  0  0  0  0  0  0  0
    7.5440   -2.7179    0.0000 H   0  0  0  0  0  0  0  0  0  0  0  0
    7.1738   -2.0766    0.0000 H   0  0  0  0  0  0  0  0  0  0  0  0
    5.8968   -3.6388    0.0000 H   0  0  0  0  0  0  0  0  0  0  0  0
    6.2671   -4.2801    0.0000 H   0  0  0  0  0  0  0  0  0  0  0  0
    8.2585   -3.9554    0.0000 H   0  0  0  0  0  0  0  0  0  0  0  0
    7.8882   -3.3141    0.0000 H   0  0  0  0  0  0  0  0  0  0  0  0
    6.6099   -4.8283    0.0000 H   0  0  0  0  0  0  0  0  0  0  0  0
    7.4349   -5.6533    0.0000 H   0  0  0  0  0  0  0  0  0  0  0  0
    8.2599   -4.8283    0.0000 H   0  0  0  0  0  0  0  0  0  0  0  0
    3.4092    2.0484    0.0000 H   0  0  0  0  0  0  0  0  0  0  0  0
    3.0389    1.4071    0.0000 H   0  0  0  0  0  0  0  0  0  0  0  0
    4.9473    2.5089    0.0000 H   0  0  0  0  0  0  0  0  0  0  0  0
    4.2068    2.5089    0.0000 H   0  0  0  0  0  0  0  0  0  0  0  0
    6.3762    2.5089    0.0000 H   0  0  0  0  0  0  0  0  0  0  0  0
    5.6357    2.5089    0.0000 H   0  0  0  0  0  0  0  0  0  0  0  0
    7.3828    0.8674    0.0000 H   0  0  0  0  0  0  0  0  0  0  0  0
    5.9633    1.0314    0.0000 H   0  0  0  0  0  0  0  0  0  0  0  0
    7.8052    2.5089    0.0000 H   0  0  0  0  0  0  0  0  0  0  0  0
    7.0646    2.5089    0.0000 H   0  0  0  0  0  0  0  0  0  0  0  0
    8.3907    0.5703    0.0000 H   0  0  0  0  0  0  0  0  0  0  0  0
    8.9741    1.3785    0.0000 H   0  0  0  0  0  0  0  0  0  0  0  0
    8.3536    2.1585    0.0000 H   0  0  0  0  0  0  0  0  0  0  0  0
  1  2  1  0  0  0  0
  2  3  1  0  0  0  0
  3  4  1  0  0  0  0
  4  5  1  0  0  0  0
  5  6  1  0  0  0  0
  6  7  1  0  0  0  0
  7  8  1  0  0  0  0
  8  9  1  0  0  0  0
  9 10  1  0  0  0  0
 10 11  1  0  0  0  0
 11 12  1  0  0  0  0
 12 13  1  0  0  0  0
 13 14  1  0  0  0  0
 14 15  1  0  0  0  0
 15 16  1  0  0  0  0
 16 17  1  0  0  0  0
  9 18  1  0  0  0  0
 18 19  1  0  0  0  0
 19 20  1  0  0  0  0
 20 21  1  0  0  0  0
 21 22  1  0  0  0  0
 22 23  1  0  0  0  0
 23 24  1  0  0  0  0
 24 25  1  0  0  0  0
  9 26  1  0  0  0  0
 26 27  1  0  0  0  0
 27 28  1  0  0  0  0
 28 29  1  0  0  0  0
 29 30  1  0  0  0  0
 30 31  1  0  0  0  0
 31 32  1  0  0  0  0
 32 33  1  0  0  0  0
  1 34  1  0  0  0  0
  1 35  1  0  0  0  0
  1 36  1  0  0  0  0
  2 37  1  0  0  0  0
  2 38  1  0  0  0  0
  3 39  1  0  0  0  0
  3 40  1  0  0  0  0
  4 41  1  0  0  0  0
  4 42  1  0  0  0  0
  6 43  1  0  0  0  0
  6 44  1  0  0  0  0
  7 45  1  0  0  0  0
  7 46  1  0  0  0  0
 11 47  1  0  0  0  0
 11 48  1  0  0  0  0
 12 49  1  0  0  0  0
 12 50  1  0  0  0  0
 14 51  1  0  0  0  0
 14 52  1  0  0  0  0
 15 53  1  0  0  0  0
 15 54  1  0  0  0  0
 16 55  1  0  0  0  0
 16 56  1  0  0  0  0
 17 57  1  0  0  0  0
 17 58  1  0  0  0  0
 17 59  1  0  0  0  0
 19 60  1  0  0  0  0
 19 61  1  0  0  0  0
 20 62  1  0  0  0  0
 20 63  1  0  0  0  0
 22 64  1  0  0  0  0
 22 65  1  0  0  0  0
 23 66  1  0  0  0  0
 23 67  1  0  0  0  0
 24 68  1  0  0  0  0
 24 69  1  0  0  0  0
 25 70  1  0  0  0  0
 25 71  1  0  0  0  0
 25 72  1  0  0  0  0
 27 73  1  0  0  0  0
 27 74  1  0  0  0  0
 28 75  1  0  0  0  0
 28 76  1  0  0  0  0
 30 77  1  0  0  0  0
 30 78  1  0  0  0  0
 31 79  1  0  0  0  0
 31 80  1  0  0  0  0
 32 81  1  0  0  0  0
 32 82  1  0  0  0  0
 33 83  1  0  0  0  0
 33 84  1  0  0  0  0
 33 85  1  0  0  0  0
M  END
>  <id_input>
5056

>  <InChIKey>
KWBZWRZCDGHBIQ-UHFFFAOYSA-N

>  <substance_name>
tetrakis(2-butoxyethyl) silicate

>  <casrn>
18765-38-3

>  <Molecular weight>
496.7503967285156

>  <guideline>
OECD Guideline 404 (Acute Dermal Irritation / Corrosion)

>  <species>
rabbit

>  <type_of_coverage>
semiocclusive

>  <max_duration(hrs)>
4.0

>  <vehicle>
unchanged (no vehicle)

>  <edema/ erythema score>
2.99666666666666

>  <max_score>
4.0

>  <reversibility>
0.0

>  <Outcome>
1

>  <StandardizerResult>
Remove Explicit Hydrogens (ID: RemoveExplicitH)
Clear Stereo (ID: ClearStereo)
Wedge Clean (ID: WedgeClean)
Mesomerize (ID: Mesomerize)
Tautomerize (ID: Tautomerize)
Add Explicit Hydrogens (ID: AddExplicitH)
Neutralize (ID: Neutralize)
Clean 2D (ID: Clean2D)


$$$$

  Mrv1812 02121911042D          

 16 16  0  0  0  0            999 V2000
    1.1403    1.9023    0.0000 Br  0  0  0  0  0  0  0  0  0  0  0  0
    0.4258    1.4898    0.0000 C   0  0  0  0  0  0  0  0  0  0  0  0
   -0.2887    1.9023    0.0000 C   0  0  0  0  0  0  0  0  0  0  0  0
   -1.0031    1.4898    0.0000 C   0  0  0  0  0  0  0  0  0  0  0  0
   -1.0031    0.6648    0.0000 C   0  0  0  0  0  0  0  0  0  0  0  0
   -1.7176    0.2523    0.0000 Br  0  0  0  0  0  0  0  0  0  0  0  0
   -0.2887    0.2523    0.0000 C   0  0  0  0  0  0  0  0  0  0  0  0
   -0.2887   -0.5727    0.0000 C   0  0  0  0  0  0  0  0  0  0  0  0
    0.4258   -0.9852    0.0000 C   0  0  0  0  0  0  0  0  0  0  0  0
    0.4258    0.6648    0.0000 C   0  0  0  0  0  0  0  0  0  0  0  0
   -0.2887    2.7273    0.0000 H   0  0  0  0  0  0  0  0  0  0  0  0
   -1.7176    1.9023    0.0000 H   0  0  0  0  0  0  0  0  0  0  0  0
   -1.0031   -0.9852    0.0000 H   0  0  0  0  0  0  0  0  0  0  0  0
    0.4258   -1.8102    0.0000 H   0  0  0  0  0  0  0  0  0  0  0  0
    1.1403   -0.5727    0.0000 H   0  0  0  0  0  0  0  0  0  0  0  0
    1.1403    0.2523    0.0000 H   0  0  0  0  0  0  0  0  0  0  0  0
  1  2  1  0  0  0  0
  3  2  4  0  0  0  0
  4  3  4  0  0  0  0
  5  4  4  0  0  0  0
  5  6  1  0  0  0  0
  7  5  4  0  0  0  0
  7  8  1  0  0  0  0
  8  9  2  0  0  0  0
 10  7  4  0  0  0  0
  2 10  4  0  0  0  0
  3 11  1  0  0  0  0
  4 12  1  0  0  0  0
  8 13  1  0  0  0  0
  9 14  1  0  0  0  0
  9 15  1  0  0  0  0
 10 16  1  0  0  0  0
M  END
>  <id_input>
5283

>  <InChIKey>
KWVKCGGJLLNVSC-UHFFFAOYSA-N

>  <substance_name>
unnamed [125904-11-2]

>  <casrn>
125904-11-2

>  <Molecular weight>
261.9412536621094

>  <guideline>
EPA OPP 81-5 (Acute Dermal Irritation)

>  <species>
rabbit

>  <type_of_coverage>
semiocclusive

>  <max_duration(hrs)>
4.0

>  <vehicle>
unchanged (no vehicle)

>  <edema/ erythema score>
2.5

>  <max_score>
4.0

>  <reversibility>
0.0

>  <Outcome>
1

>  <StandardizerResult>
Remove Explicit Hydrogens (ID: RemoveExplicitH)
Dearomatize (ID: Dearomatize)
Clear Stereo (ID: ClearStereo)
Wedge Clean (ID: WedgeClean)
Mesomerize (ID: Mesomerize)
Tautomerize (ID: Tautomerize)
Aromatize (ID: Aromatize)
Add Explicit Hydrogens (ID: AddExplicitH)
Neutralize (ID: Neutralize)
Clean 2D (ID: Clean2D)


$$$$

  Mrv1812 02121911042D          

 29 28  0  0  0  0            999 V2000
   -0.1008    0.1693    0.0000 C   0  0  0  0  0  0  0  0  0  0  0  0
    0.6136   -0.2432    0.0000 C   0  0  0  0  0  0  0  0  0  0  0  0
    1.3281    0.1693    0.0000 Si  0  0  0  0  0  4  0  0  0  0  0  0
    1.7406   -0.5452    0.0000 O   0  0  0  0  0  0  0  0  0  0  0  0
    1.3281   -1.2597    0.0000 C   0  0  0  0  0  0  0  0  0  0  0  0
    1.7406   -1.9742    0.0000 C   0  0  0  0  0  0  0  0  0  0  0  0
    0.5031   -1.2597    0.0000 O   0  0  0  0  0  0  0  0  0  0  0  0
    0.9156    0.8837    0.0000 O   0  0  0  0  0  0  0  0  0  0  0  0
    1.3281    1.5982    0.0000 C   0  0  0  0  0  0  0  0  0  0  0  0
    0.9156    2.3127    0.0000 C   0  0  0  0  0  0  0  0  0  0  0  0
    2.1531    1.5982    0.0000 O   0  0  0  0  0  0  0  0  0  0  0  0
    2.0426    0.5818    0.0000 O   0  0  0  0  0  0  0  0  0  0  0  0
    2.7571    0.1693    0.0000 C   0  0  0  0  0  0  0  0  0  0  0  0
    2.7571   -0.6557    0.0000 C   0  0  0  0  0  0  0  0  0  0  0  0
    3.4715    0.5818    0.0000 O   0  0  0  0  0  0  0  0  0  0  0  0
    0.3117    0.8837    0.0000 H   0  0  0  0  0  0  0  0  0  0  0  0
   -0.8153    0.5818    0.0000 H   0  0  0  0  0  0  0  0  0  0  0  0
   -0.5133   -0.5452    0.0000 H   0  0  0  0  0  0  0  0  0  0  0  0
    0.2434   -0.9805    0.0000 H   0  0  0  0  0  0  0  0  0  0  0  0
    0.9839   -0.9805    0.0000 H   0  0  0  0  0  0  0  0  0  0  0  0
    1.0261   -2.3867    0.0000 H   0  0  0  0  0  0  0  0  0  0  0  0
    2.1531   -2.6886    0.0000 H   0  0  0  0  0  0  0  0  0  0  0  0
    2.4551   -1.5617    0.0000 H   0  0  0  0  0  0  0  0  0  0  0  0
    1.6301    2.7252    0.0000 H   0  0  0  0  0  0  0  0  0  0  0  0
    0.5031    3.0271    0.0000 H   0  0  0  0  0  0  0  0  0  0  0  0
    0.2011    1.9002    0.0000 H   0  0  0  0  0  0  0  0  0  0  0  0
    3.4622   -1.0839    0.0000 H   0  0  0  0  0  0  0  0  0  0  0  0
    3.5615   -0.4725    0.0000 H   0  0  0  0  0  0  0  0  0  0  0  0
    1.9427   -0.5236    0.0000 H   0  0  0  0  0  0  0  0  0  0  0  0
  1  2  1  0  0  0  0
  2  3  1  0  0  0  0
  3  4  1  0  0  0  0
  4  5  1  0  0  0  0
  5  6  1  0  0  0  0
  5  7  2  0  0  0  0
  3  8  1  0  0  0  0
  8  9  1  0  0  0  0
  9 10  1  0  0  0  0
  9 11  2  0  0  0  0
  3 12  1  0  0  0  0
 12 13  1  0  0  0  0
 13 14  1  0  0  0  0
 13 15  2  0  0  0  0
  1 16  1  0  0  0  0
  1 17  1  0  0  0  0
  1 18  1  0  0  0  0
  2 19  1  0  0  0  0
  2 20  1  0  0  0  0
  6 21  1  0  0  0  0
  6 22  1  0  0  0  0
  6 23  1  0  0  0  0
 10 24  1  0  0  0  0
 10 25  1  0  0  0  0
 10 26  1  0  0  0  0
 14 27  1  0  0  0  0
 14 28  1  0  0  0  0
 14 29  1  0  0  0  0
M  END
>  <id_input>
3925

>  <InChIKey>
KXJLGCBCRCSXQF-UHFFFAOYSA-N

>  <substance_name>
bis(acetyloxy)(ethyl)silyl acetate

>  <casrn>
17689-77-9

>  <Molecular weight>
234.27865600585938

>  <guideline>
OECD Guideline 404 (Acute Dermal Irritation / Corrosion)

>  <species>
rabbit

>  <type_of_coverage>
semiocclusive

>  <max_duration(hrs)>
4.0

>  <vehicle>
unchanged (no vehicle)

>  <edema/ erythema score>
4.0

>  <max_score>
4.0

>  <reversibility>
1.0

>  <Outcome>
1

>  <StandardizerResult>
Remove Explicit Hydrogens (ID: RemoveExplicitH)
Clear Stereo (ID: ClearStereo)
Wedge Clean (ID: WedgeClean)
Mesomerize (ID: Mesomerize)
Tautomerize (ID: Tautomerize)
Add Explicit Hydrogens (ID: AddExplicitH)
Neutralize (ID: Neutralize)
Clean 2D (ID: Clean2D)


$$$$

  Mrv1812 02121911042D          

 34 33  0  0  0  0            999 V2000
    0.0000    0.3397    0.0000 C   0  0  0  0  0  0  0  0  0  0  0  0
    0.7145   -0.0728    0.0000 C   0  0  0  0  0  0  0  0  0  0  0  0
    1.4289    0.3397    0.0000 C   0  0  0  0  0  0  0  0  0  0  0  0
    2.1434   -0.0728    0.0000 C   0  0  0  0  0  0  0  0  0  0  0  0
    2.8579    0.3397    0.0000 C   0  0  0  0  0  0  0  0  0  0  0  0
    3.5724   -0.0728    0.0000 C   0  0  0  0  0  0  0  0  0  0  0  0
    4.2868    0.3397    0.0000 C   0  0  0  0  0  0  0  0  0  0  0  0
    5.0013   -0.0728    0.0000 C   0  0  0  0  0  0  0  0  0  0  0  0
    5.7158    0.3397    0.0000 C   0  0  0  0  0  0  0  0  0  0  0  0
    6.4302   -0.0728    0.0000 C   0  0  0  0  0  0  0  0  0  0  0  0
    7.1447    0.3397    0.0000 C   0  0  0  0  0  0  0  0  0  0  0  0
    6.4302   -0.8978    0.0000 O   0  0  0  0  0  0  0  0  0  0  0  0
    0.4125    1.0542    0.0000 H   0  0  0  0  0  0  0  0  0  0  0  0
   -0.7145    0.7522    0.0000 H   0  0  0  0  0  0  0  0  0  0  0  0
   -0.4125   -0.3748    0.0000 H   0  0  0  0  0  0  0  0  0  0  0  0
    0.3442   -0.8100    0.0000 H   0  0  0  0  0  0  0  0  0  0  0  0
    1.0847   -0.8100    0.0000 H   0  0  0  0  0  0  0  0  0  0  0  0
    1.7992    1.0769    0.0000 H   0  0  0  0  0  0  0  0  0  0  0  0
    1.0587    1.0769    0.0000 H   0  0  0  0  0  0  0  0  0  0  0  0
    1.7732   -0.8100    0.0000 H   0  0  0  0  0  0  0  0  0  0  0  0
    2.5137   -0.8100    0.0000 H   0  0  0  0  0  0  0  0  0  0  0  0
    3.2281    1.0769    0.0000 H   0  0  0  0  0  0  0  0  0  0  0  0
    2.4876    1.0769    0.0000 H   0  0  0  0  0  0  0  0  0  0  0  0
    3.2021   -0.8100    0.0000 H   0  0  0  0  0  0  0  0  0  0  0  0
    3.9426   -0.8100    0.0000 H   0  0  0  0  0  0  0  0  0  0  0  0
    4.6571    1.0769    0.0000 H   0  0  0  0  0  0  0  0  0  0  0  0
    3.9166    1.0769    0.0000 H   0  0  0  0  0  0  0  0  0  0  0  0
    4.6310   -0.8100    0.0000 H   0  0  0  0  0  0  0  0  0  0  0  0
    5.3716   -0.8100    0.0000 H   0  0  0  0  0  0  0  0  0  0  0  0
    6.0860    1.0769    0.0000 H   0  0  0  0  0  0  0  0  0  0  0  0
    5.3455    1.0769    0.0000 H   0  0  0  0  0  0  0  0  0  0  0  0
    7.5572   -0.3748    0.0000 H   0  0  0  0  0  0  0  0  0  0  0  0
    7.8592    0.7522    0.0000 H   0  0  0  0  0  0  0  0  0  0  0  0
    6.7322    1.0542    0.0000 H   0  0  0  0  0  0  0  0  0  0  0  0
  1  2  1  0  0  0  0
  2  3  1  0  0  0  0
  3  4  1  0  0  0  0
  4  5  1  0  0  0  0
  5  6  1  0  0  0  0
  6  7  1  0  0  0  0
  7  8  1  0  0  0  0
  8  9  1  0  0  0  0
  9 10  1  0  0  0  0
 10 11  1  0  0  0  0
 10 12  2  0  0  0  0
  1 13  1  0  0  0  0
  1 14  1  0  0  0  0
  1 15  1  0  0  0  0
  2 16  1  0  0  0  0
  2 17  1  0  0  0  0
  3 18  1  0  0  0  0
  3 19  1  0  0  0  0
  4 20  1  0  0  0  0
  4 21  1  0  0  0  0
  5 22  1  0  0  0  0
  5 23  1  0  0  0  0
  6 24  1  0  0  0  0
  6 25  1  0  0  0  0
  7 26  1  0  0  0  0
  7 27  1  0  0  0  0
  8 28  1  0  0  0  0
  8 29  1  0  0  0  0
  9 30  1  0  0  0  0
  9 31  1  0  0  0  0
 11 32  1  0  0  0  0
 11 33  1  0  0  0  0
 11 34  1  0  0  0  0
M  END
>  <id_input>
5214

>  <InChIKey>
KYWIYKKSMDLRDC-UHFFFAOYSA-N

>  <substance_name>
undecan-2-one

>  <casrn>
112-12-9

>  <Molecular weight>
170.29177856445312

>  <guideline>
OECD Guideline 404 (Acute Dermal Irritation / Corrosion)

>  <species>
rabbit

>  <type_of_coverage>
semiocclusive

>  <max_duration(hrs)>
4.0

>  <vehicle>
not specified

>  <edema/ erythema score>
2.2

>  <reversibility>
0.0

>  <Outcome>
1

>  <StandardizerResult>
Remove Explicit Hydrogens (ID: RemoveExplicitH)
Clear Stereo (ID: ClearStereo)
Wedge Clean (ID: WedgeClean)
Mesomerize (ID: Mesomerize)
Tautomerize (ID: Tautomerize)
Add Explicit Hydrogens (ID: AddExplicitH)
Neutralize (ID: Neutralize)
Clean 2D (ID: Clean2D)


$$$$

  Mrv1812 02121911042D          

 15 15  0  0  0  0            999 V2000
    1.3774    1.0175    0.0000 Cl  0  0  0  0  0  0  0  0  0  0  0  0
    0.6629    0.6050    0.0000 C   0  0  0  0  0  0  0  0  0  0  0  0
   -0.0516    1.0175    0.0000 C   0  0  0  0  0  0  0  0  0  0  0  0
   -0.7660    0.6050    0.0000 C   0  0  0  0  0  0  0  0  0  0  0  0
   -0.7660   -0.2200    0.0000 C   0  0  0  0  0  0  0  0  0  0  0  0
   -0.0516   -0.6325    0.0000 C   0  0  0  0  0  0  0  0  0  0  0  0
   -0.0516   -1.4575    0.0000 Cl  0  0  0  0  0  0  0  0  0  0  0  0
    0.6629   -0.2200    0.0000 C   0  0  0  0  0  0  0  0  0  0  0  0
   -1.4805   -0.6325    0.0000 C   0  0  0  0  0  0  0  0  0  0  0  0
   -2.1950   -1.0450    0.0000 Cl  0  0  0  0  0  0  0  0  0  0  0  0
   -1.8930    0.0820    0.0000 Cl  0  0  0  0  0  0  0  0  0  0  0  0
   -1.0680   -1.3470    0.0000 Cl  0  0  0  0  0  0  0  0  0  0  0  0
   -0.0516    1.8425    0.0000 H   0  0  0  0  0  0  0  0  0  0  0  0
   -1.4805    1.0175    0.0000 H   0  0  0  0  0  0  0  0  0  0  0  0
    1.3774   -0.6325    0.0000 H   0  0  0  0  0  0  0  0  0  0  0  0
  1  2  1  0  0  0  0
  3  2  4  0  0  0  0
  4  3  4  0  0  0  0
  5  4  4  0  0  0  0
  6  5  4  0  0  0  0
  6  7  1  0  0  0  0
  8  6  4  0  0  0  0
  5  9  1  0  0  0  0
  9 10  1  0  0  0  0
  9 11  1  0  0  0  0
  9 12  1  0  0  0  0
  2  8  4  0  0  0  0
  3 13  1  0  0  0  0
  4 14  1  0  0  0  0
  8 15  1  0  0  0  0
M  END
>  <id_input>
2120

>  <InChIKey>
KZSNBJMYJWDVTK-UHFFFAOYSA-N

>  <substance_name>
2,4-dichloro-1-(trichloromethyl)benzene

>  <casrn>
13014-18-1

>  <Molecular weight>
264.36370849609375

>  <guideline>
OECD Guideline 404 (Acute Dermal Irritation / Corrosion)

>  <species>
rabbit

>  <type_of_coverage>
semiocclusive

>  <max_duration(hrs)>
4.0

>  <vehicle>
other: Polyethylene glycol (PEG) 400

>  <edema/ erythema score>
2.33333333333333

>  <max_score>
4.0

>  <reversibility>
0.0

>  <Outcome>
1

>  <StandardizerResult>
Remove Explicit Hydrogens (ID: RemoveExplicitH)
Dearomatize (ID: Dearomatize)
Clear Stereo (ID: ClearStereo)
Wedge Clean (ID: WedgeClean)
Mesomerize (ID: Mesomerize)
Tautomerize (ID: Tautomerize)
Aromatize (ID: Aromatize)
Add Explicit Hydrogens (ID: AddExplicitH)
Neutralize (ID: Neutralize)
Clean 2D (ID: Clean2D)


$$$$

  Mrv1812 02121911042D          

 30 31  0  0  0  0            999 V2000
    0.4912    4.3332    0.0000 O   0  0  0  0  0  0  0  0  0  0  0  0
    0.4912    3.5082    0.0000 C   0  0  0  0  0  0  0  0  0  0  0  0
    1.2056    3.0957    0.0000 O   0  0  0  0  0  0  0  0  0  0  0  0
   -0.2233    3.0957    0.0000 C   0  0  0  0  0  0  0  0  0  0  0  0
   -0.9378    3.5082    0.0000 C   0  0  0  0  0  0  0  0  0  0  0  0
   -1.6522    3.0957    0.0000 C   0  0  0  0  0  0  0  0  0  0  0  0
   -1.6522    2.2707    0.0000 C   0  0  0  0  0  0  0  0  0  0  0  0
   -0.9378    1.8582    0.0000 C   0  0  0  0  0  0  0  0  0  0  0  0
   -0.2233    2.2707    0.0000 C   0  0  0  0  0  0  0  0  0  0  0  0
    0.4912    1.8582    0.0000 S   0  0  0  0  0  0  0  0  0  0  0  0
    0.4912    1.0332    0.0000 S   0  0  0  0  0  0  0  0  0  0  0  0
    1.2056    0.6207    0.0000 C   0  0  0  0  0  0  0  0  0  0  0  0
    1.2056   -0.2043    0.0000 C   0  0  0  0  0  0  0  0  0  0  0  0
    1.9201   -0.6168    0.0000 C   0  0  0  0  0  0  0  0  0  0  0  0
    2.6346   -0.2043    0.0000 C   0  0  0  0  0  0  0  0  0  0  0  0
    2.6346    0.6207    0.0000 C   0  0  0  0  0  0  0  0  0  0  0  0
    1.9201    1.0332    0.0000 C   0  0  0  0  0  0  0  0  0  0  0  0
    1.9201    1.8582    0.0000 C   0  0  0  0  0  0  0  0  0  0  0  0
    1.2056    2.2707    0.0000 O   0  0  0  0  0  0  0  0  0  0  0  0
    2.6346    2.2707    0.0000 O   0  0  0  0  0  0  0  0  0  0  0  0
    1.2056    4.7457    0.0000 H   0  0  0  0  0  0  0  0  0  0  0  0
   -0.9378    4.3332    0.0000 H   0  0  0  0  0  0  0  0  0  0  0  0
   -2.3667    3.5082    0.0000 H   0  0  0  0  0  0  0  0  0  0  0  0
   -2.3667    1.8582    0.0000 H   0  0  0  0  0  0  0  0  0  0  0  0
   -0.9378    1.0332    0.0000 H   0  0  0  0  0  0  0  0  0  0  0  0
    0.4912   -0.6168    0.0000 H   0  0  0  0  0  0  0  0  0  0  0  0
    1.9201   -1.4418    0.0000 H   0  0  0  0  0  0  0  0  0  0  0  0
    3.3491   -0.6168    0.0000 H   0  0  0  0  0  0  0  0  0  0  0  0
    3.3491    1.0332    0.0000 H   0  0  0  0  0  0  0  0  0  0  0  0
    0.4912    2.6832    0.0000 H   0  0  0  0  0  0  0  0  0  0  0  0
  1  2  1  0  0  0  0
  2  3  2  0  0  0  0
  2  4  1  0  0  0  0
  5  4  4  0  0  0  0
  6  5  4  0  0  0  0
  7  6  4  0  0  0  0
  8  7  4  0  0  0  0
  9  8  4  0  0  0  0
  9 10  1  0  0  0  0
 10 11  1  0  0  0  0
 11 12  1  0  0  0  0
 13 12  4  0  0  0  0
 14 13  4  0  0  0  0
 15 14  4  0  0  0  0
 16 15  4  0  0  0  0
 17 16  4  0  0  0  0
 17 18  1  0  0  0  0
 18 19  1  0  0  0  0
 18 20  2  0  0  0  0
  4  9  4  0  0  0  0
 12 17  4  0  0  0  0
  1 21  1  0  0  0  0
  5 22  1  0  0  0  0
  6 23  1  0  0  0  0
  7 24  1  0  0  0  0
  8 25  1  0  0  0  0
 13 26  1  0  0  0  0
 14 27  1  0  0  0  0
 15 28  1  0  0  0  0
 16 29  1  0  0  0  0
 19 30  1  0  0  0  0
M  END
>  <id_input>
2040

>  <InChIKey>
LBEMXJWGHIEXRA-UHFFFAOYSA-N

>  <substance_name>
2,2'-disulfanediyldibenzoic acid

>  <casrn>
119-80-2

>  <Molecular weight>
306.3568115234375

>  <guideline>
OECD Guideline 404 (Acute Dermal Irritation / Corrosion)

>  <species>
rabbit

>  <type_of_coverage>
occlusive

>  <max_duration(hrs)>
4.0

>  <vehicle>
other: corn oil

>  <edema/ erythema score>
1.56666666666666

>  <max_score>
2.0

>  <reversibility>
0.0

>  <Outcome>
1

>  <StandardizerResult>
Remove Explicit Hydrogens (ID: RemoveExplicitH)
Dearomatize (ID: Dearomatize)
Clear Stereo (ID: ClearStereo)
Wedge Clean (ID: WedgeClean)
Mesomerize (ID: Mesomerize)
Tautomerize (ID: Tautomerize)
Aromatize (ID: Aromatize)
Add Explicit Hydrogens (ID: AddExplicitH)
Neutralize (ID: Neutralize)
Clean 2D (ID: Clean2D)


$$$$

  Mrv1812 02121911042D          

 21 20  0  0  0  0            999 V2000
    3.1707   -0.7503    0.0000 C   0  0  0  0  0  0  0  0  0  0  0  0
    2.4563   -1.1628    0.0000 O   0  0  0  0  0  0  0  0  0  0  0  0
    1.7418   -0.7503    0.0000 Si  0  0  0  0  0  4  0  0  0  0  0  0
    1.0273   -0.3378    0.0000 O   0  0  0  0  0  0  0  0  0  0  0  0
    0.3129   -0.7503    0.0000 C   0  0  0  0  0  0  0  0  0  0  0  0
    2.1543   -0.0359    0.0000 O   0  0  0  0  0  0  0  0  0  0  0  0
    1.7418    0.6786    0.0000 C   0  0  0  0  0  0  0  0  0  0  0  0
    1.3293   -1.4648    0.0000 O   0  0  0  0  0  0  0  0  0  0  0  0
    0.5043   -1.4648    0.0000 C   0  0  0  0  0  0  0  0  0  0  0  0
    3.5832   -1.4648    0.0000 H   0  0  0  0  0  0  0  0  0  0  0  0
    3.8852   -0.3378    0.0000 H   0  0  0  0  0  0  0  0  0  0  0  0
    2.7582   -0.0359    0.0000 H   0  0  0  0  0  0  0  0  0  0  0  0
    0.2589    0.0729    0.0000 H   0  0  0  0  0  0  0  0  0  0  0  0
   -0.4493   -0.4346    0.0000 H   0  0  0  0  0  0  0  0  0  0  0  0
   -0.3074   -1.2943    0.0000 H   0  0  0  0  0  0  0  0  0  0  0  0
    2.4563    1.0911    0.0000 H   0  0  0  0  0  0  0  0  0  0  0  0
    1.3293    1.3931    0.0000 H   0  0  0  0  0  0  0  0  0  0  0  0
    1.0273    0.2661    0.0000 H   0  0  0  0  0  0  0  0  0  0  0  0
    0.1266   -2.1983    0.0000 H   0  0  0  0  0  0  0  0  0  0  0  0
    0.7232   -2.2602    0.0000 H   0  0  0  0  0  0  0  0  0  0  0  0
    1.0065   -0.8103    0.0000 H   0  0  0  0  0  0  0  0  0  0  0  0
  1  2  1  0  0  0  0
  2  3  1  0  0  0  0
  3  4  1  0  0  0  0
  4  5  1  0  0  0  0
  3  6  1  0  0  0  0
  6  7  1  0  0  0  0
  3  8  1  0  0  0  0
  8  9  1  0  0  0  0
  1 10  1  0  0  0  0
  1 11  1  0  0  0  0
  1 12  1  0  0  0  0
  5 13  1  0  0  0  0
  5 14  1  0  0  0  0
  5 15  1  0  0  0  0
  7 16  1  0  0  0  0
  7 17  1  0  0  0  0
  7 18  1  0  0  0  0
  9 19  1  0  0  0  0
  9 20  1  0  0  0  0
  9 21  1  0  0  0  0
M  END
>  <id_input>
5062

>  <InChIKey>
LFQCEHFDDXELDD-UHFFFAOYSA-N

>  <substance_name>
tetramethyl silicate

>  <casrn>
681-84-5

>  <Molecular weight>
152.22117614746094

>  <guideline>
OECD Guideline 404 (Acute Dermal Irritation / Corrosion)

>  <species>
rabbit

>  <type_of_coverage>
semiocclusive

>  <max_duration(hrs)>
4.0

>  <vehicle>
unchanged (no vehicle)

>  <edema/ erythema score>
4.0

>  <max_score>
4.0

>  <reversibility>
0.0

>  <Outcome>
1

>  <StandardizerResult>
Remove Explicit Hydrogens (ID: RemoveExplicitH)
Clear Stereo (ID: ClearStereo)
Wedge Clean (ID: WedgeClean)
Mesomerize (ID: Mesomerize)
Tautomerize (ID: Tautomerize)
Add Explicit Hydrogens (ID: AddExplicitH)
Neutralize (ID: Neutralize)
Clean 2D (ID: Clean2D)


$$$$

  Mrv1812 02121911042D          

 19 18  0  0  0  0            999 V2000
   -0.7144    0.4125    0.0000 N   0  0  0  0  0  0  0  0  0  0  0  0
    0.0000    0.0000    0.0000 C   0  0  0  0  0  0  0  0  0  0  0  0
    0.7145    0.4125    0.0000 C   0  0  0  0  0  0  0  0  0  0  0  0
    1.4290    0.0000    0.0000 N   0  0  0  0  0  0  0  0  0  0  0  0
    2.1434    0.4125    0.0000 C   0  0  0  0  0  0  0  0  0  0  0  0
    2.8579    0.0000    0.0000 C   0  0  0  0  0  0  0  0  0  0  0  0
    3.5724    0.4125    0.0000 O   0  0  0  0  0  0  0  0  0  0  0  0
   -0.7144    1.2375    0.0000 H   0  0  0  0  0  0  0  0  0  0  0  0
   -1.4289    0.0000    0.0000 H   0  0  0  0  0  0  0  0  0  0  0  0
   -0.3702   -0.7372    0.0000 H   0  0  0  0  0  0  0  0  0  0  0  0
    0.3703   -0.7372    0.0000 H   0  0  0  0  0  0  0  0  0  0  0  0
    1.0848    1.1497    0.0000 H   0  0  0  0  0  0  0  0  0  0  0  0
    0.3442    1.1497    0.0000 H   0  0  0  0  0  0  0  0  0  0  0  0
    1.4290   -0.8250    0.0000 H   0  0  0  0  0  0  0  0  0  0  0  0
    2.5137    1.1497    0.0000 H   0  0  0  0  0  0  0  0  0  0  0  0
    1.7732    1.1497    0.0000 H   0  0  0  0  0  0  0  0  0  0  0  0
    2.4876   -0.7372    0.0000 H   0  0  0  0  0  0  0  0  0  0  0  0
    3.2282   -0.7372    0.0000 H   0  0  0  0  0  0  0  0  0  0  0  0
    4.2869    0.0000    0.0000 H   0  0  0  0  0  0  0  0  0  0  0  0
  1  2  1  0  0  0  0
  2  3  1  0  0  0  0
  3  4  1  0  0  0  0
  4  5  1  0  0  0  0
  5  6  1  0  0  0  0
  6  7  1  0  0  0  0
  1  8  1  0  0  0  0
  1  9  1  0  0  0  0
  2 10  1  0  0  0  0
  2 11  1  0  0  0  0
  3 12  1  0  0  0  0
  3 13  1  0  0  0  0
  4 14  1  0  0  0  0
  5 15  1  0  0  0  0
  5 16  1  0  0  0  0
  6 17  1  0  0  0  0
  6 18  1  0  0  0  0
  7 19  1  0  0  0  0
M  END
>  <id_input>
2241

>  <InChIKey>
LHIJANUOQQMGNT-UHFFFAOYSA-N

>  <substance_name>
2-[(2-aminoethyl)amino]ethan-1-ol

>  <casrn>
111-41-1

>  <Molecular weight>
104.15087890625

>  <guideline>
OECD Guideline 404 (Acute Dermal Irritation / Corrosion)

>  <species>
rabbit

>  <type_of_coverage>
semiocclusive

>  <max_duration(hrs)>
4.0

>  <vehicle>
unchanged (no vehicle)

>  <edema/ erythema score>
1.94625

>  <max_score>
4.0

>  <reversibility>
0.0

>  <Outcome>
1

>  <StandardizerResult>
Remove Explicit Hydrogens (ID: RemoveExplicitH)
Clear Stereo (ID: ClearStereo)
Wedge Clean (ID: WedgeClean)
Mesomerize (ID: Mesomerize)
Tautomerize (ID: Tautomerize)
Add Explicit Hydrogens (ID: AddExplicitH)
Neutralize (ID: Neutralize)
Clean 2D (ID: Clean2D)


$$$$

  Mrv1812 02121911042D          

 29 28  0  0  0  0            999 V2000
   -0.4235    0.6300    0.0000 C   0  0  0  0  0  0  0  0  0  0  0  0
   -0.4235   -0.1950    0.0000 C   0  0  0  0  0  0  0  0  0  0  0  0
    0.2910   -0.6075    0.0000 C   0  0  0  0  0  0  0  0  0  0  0  0
    0.2910   -1.4325    0.0000 C   0  0  0  0  0  0  0  0  0  0  0  0
    1.0055   -1.8450    0.0000 C   0  0  0  0  0  0  0  0  0  0  0  0
    1.7199   -1.4325    0.0000 C   0  0  0  0  0  0  0  0  0  0  0  0
    2.4344   -1.8450    0.0000 O   0  0  0  0  0  0  0  0  0  0  0  0
    3.1489   -1.4325    0.0000 C   0  0  0  0  0  0  0  0  0  0  0  0
    3.8634   -1.8450    0.0000 C   0  0  0  0  0  0  0  0  0  0  0  0
    4.5778   -1.4325    0.0000 C   0  0  0  0  0  0  0  0  0  0  0  0
    3.8634   -2.6700    0.0000 C   0  0  0  0  0  0  0  0  0  0  0  0
    0.4015    0.6300    0.0000 H   0  0  0  0  0  0  0  0  0  0  0  0
   -0.4235    1.4550    0.0000 H   0  0  0  0  0  0  0  0  0  0  0  0
   -1.2485    0.6300    0.0000 H   0  0  0  0  0  0  0  0  0  0  0  0
   -1.2471   -0.2430    0.0000 H   0  0  0  0  0  0  0  0  0  0  0  0
   -0.8768   -0.8843    0.0000 H   0  0  0  0  0  0  0  0  0  0  0  0
    1.0055   -0.1950    0.0000 H   0  0  0  0  0  0  0  0  0  0  0  0
   -0.4235   -1.8450    0.0000 H   0  0  0  0  0  0  0  0  0  0  0  0
    0.6352   -2.5823    0.0000 H   0  0  0  0  0  0  0  0  0  0  0  0
    1.3757   -2.5823    0.0000 H   0  0  0  0  0  0  0  0  0  0  0  0
    2.0902   -0.6953    0.0000 H   0  0  0  0  0  0  0  0  0  0  0  0
    1.3497   -0.6953    0.0000 H   0  0  0  0  0  0  0  0  0  0  0  0
    3.5191   -0.6953    0.0000 H   0  0  0  0  0  0  0  0  0  0  0  0
    2.7786   -0.6953    0.0000 H   0  0  0  0  0  0  0  0  0  0  0  0
    5.2923   -1.8450    0.0000 H   0  0  0  0  0  0  0  0  0  0  0  0
    4.5778   -0.6075    0.0000 H   0  0  0  0  0  0  0  0  0  0  0  0
    3.0384   -2.6700    0.0000 H   0  0  0  0  0  0  0  0  0  0  0  0
    3.8634   -3.4950    0.0000 H   0  0  0  0  0  0  0  0  0  0  0  0
    4.6884   -2.6700    0.0000 H   0  0  0  0  0  0  0  0  0  0  0  0
  1  2  1  0  0  0  0
  3  2  1  4  0  0  0
  3  4  2  0  0  0  0
  4  5  1  0  0  0  0
  5  6  1  0  0  0  0
  6  7  1  0  0  0  0
  7  8  1  0  0  0  0
  8  9  1  0  0  0  0
  9 10  2  0  0  0  0
  9 11  1  0  0  0  0
  1 12  1  0  0  0  0
  1 13  1  0  0  0  0
  1 14  1  0  0  0  0
  2 15  1  0  0  0  0
  2 16  1  0  0  0  0
  3 17  1  0  0  0  0
  4 18  1  0  0  0  0
  5 19  1  0  0  0  0
  5 20  1  0  0  0  0
  6 21  1  0  0  0  0
  6 22  1  0  0  0  0
  8 23  1  0  0  0  0
  8 24  1  0  0  0  0
 10 25  1  0  0  0  0
 10 26  1  0  0  0  0
 11 27  1  0  0  0  0
 11 28  1  0  0  0  0
 11 29  1  0  0  0  0
M  END
>  <id_input>
526

>  <InChIKey>
LIWYPQFTKLABSJ-UHFFFAOYSA-N

>  <substance_name>
-

>  <casrn>
292605-05-1

>  <Molecular weight>
154.24932861328125

>  <guideline>
OECD Guideline 404 (Acute Dermal Irritation / Corrosion)

>  <species>
rabbit

>  <type_of_coverage>
semiocclusive

>  <max_duration(hrs)>
4.0

>  <vehicle>
unchanged (no vehicle)

>  <edema/ erythema score>
1.85

>  <max_score>
4.0

>  <reversibility>
0.0

>  <Outcome>
1

>  <StandardizerResult>
Remove Explicit Hydrogens (ID: RemoveExplicitH)
Clear Stereo (ID: ClearStereo)
Wedge Clean (ID: WedgeClean)
Mesomerize (ID: Mesomerize)
Tautomerize (ID: Tautomerize)
Add Explicit Hydrogens (ID: AddExplicitH)
Neutralize (ID: Neutralize)
Clean 2D (ID: Clean2D)


$$$$

  Mrv1812 02121911042D          

 23 22  0  0  0  0            999 V2000
    0.0000   -0.0024    0.0000 C   0  0  0  0  0  0  0  0  0  0  0  0
    0.7145    0.4101    0.0000 C   0  0  0  0  0  0  0  0  0  0  0  0
    1.4290   -0.0024    0.0000 C   0  0  0  0  0  0  0  0  0  0  0  0
    2.1435    0.4101    0.0000 C   0  0  0  0  0  0  0  0  0  0  0  0
    2.8579   -0.0024    0.0000 N   0  0  0  0  0  0  0  0  0  0  0  0
    3.5724    0.4101    0.0000 C   0  0  0  0  0  0  0  0  0  0  0  0
    4.2869   -0.0024    0.0000 C   0  0  0  0  0  0  0  0  0  0  0  0
    5.0013    0.4101    0.0000 O   0  0  0  0  0  0  0  0  0  0  0  0
   -0.4125    0.7121    0.0000 H   0  0  0  0  0  0  0  0  0  0  0  0
   -0.7144   -0.4149    0.0000 H   0  0  0  0  0  0  0  0  0  0  0  0
    0.4125   -0.7168    0.0000 H   0  0  0  0  0  0  0  0  0  0  0  0
    1.0848    1.1474    0.0000 H   0  0  0  0  0  0  0  0  0  0  0  0
    0.3443    1.1474    0.0000 H   0  0  0  0  0  0  0  0  0  0  0  0
    1.0587   -0.7396    0.0000 H   0  0  0  0  0  0  0  0  0  0  0  0
    1.7992   -0.7396    0.0000 H   0  0  0  0  0  0  0  0  0  0  0  0
    2.5137    1.1474    0.0000 H   0  0  0  0  0  0  0  0  0  0  0  0
    1.7732    1.1474    0.0000 H   0  0  0  0  0  0  0  0  0  0  0  0
    2.8579   -0.8274    0.0000 H   0  0  0  0  0  0  0  0  0  0  0  0
    3.9427    1.1474    0.0000 H   0  0  0  0  0  0  0  0  0  0  0  0
    3.2021    1.1474    0.0000 H   0  0  0  0  0  0  0  0  0  0  0  0
    3.9166   -0.7396    0.0000 H   0  0  0  0  0  0  0  0  0  0  0  0
    4.6571   -0.7396    0.0000 H   0  0  0  0  0  0  0  0  0  0  0  0
    5.7158   -0.0024    0.0000 H   0  0  0  0  0  0  0  0  0  0  0  0
  1  2  1  0  0  0  0
  2  3  1  0  0  0  0
  3  4  1  0  0  0  0
  4  5  1  0  0  0  0
  5  6  1  0  0  0  0
  6  7  1  0  0  0  0
  7  8  1  0  0  0  0
  1  9  1  0  0  0  0
  1 10  1  0  0  0  0
  1 11  1  0  0  0  0
  2 12  1  0  0  0  0
  2 13  1  0  0  0  0
  3 14  1  0  0  0  0
  3 15  1  0  0  0  0
  4 16  1  0  0  0  0
  4 17  1  0  0  0  0
  5 18  1  0  0  0  0
  6 19  1  0  0  0  0
  6 20  1  0  0  0  0
  7 21  1  0  0  0  0
  7 22  1  0  0  0  0
  8 23  1  0  0  0  0
M  END
>  <id_input>
2210

>  <InChIKey>
LJDSTRZHPWMDPG-UHFFFAOYSA-N

>  <substance_name>
2-(butylamino)ethan-1-ol

>  <casrn>
111-75-1

>  <Molecular weight>
117.18939971923828

>  <guideline>
OECD Guideline 404 (Acute Dermal Irritation / Corrosion)

>  <species>
rabbit

>  <type_of_coverage>
semiocclusive

>  <max_duration(hrs)>
4.0

>  <vehicle>
unchanged (no vehicle)

>  <edema/ erythema score>
2.33333333333333

>  <max_score>
4.0

>  <reversibility>
0.0

>  <Outcome>
1

>  <StandardizerResult>
Remove Explicit Hydrogens (ID: RemoveExplicitH)
Clear Stereo (ID: ClearStereo)
Wedge Clean (ID: WedgeClean)
Mesomerize (ID: Mesomerize)
Tautomerize (ID: Tautomerize)
Add Explicit Hydrogens (ID: AddExplicitH)
Neutralize (ID: Neutralize)
Clean 2D (ID: Clean2D)


$$$$

  Mrv1812 02121911042D          

 15 14  0  0  0  0            999 V2000
    2.5107   -0.6798    0.0000 C   0  0  0  0  0  0  0  0  0  0  0  0
    2.0982    0.0347    0.0000 C   0  0  0  0  0  0  0  0  0  0  0  0
    1.2732    0.0347    0.0000 S   0  0  0  0  0  0  0  0  0  0  0  0
    0.8607    0.7491    0.0000 C   0  0  0  0  0  0  0  0  0  0  0  0
    0.0357    0.7491    0.0000 C   0  0  0  0  0  0  0  0  0  0  0  0
    1.7963   -1.0923    0.0000 H   0  0  0  0  0  0  0  0  0  0  0  0
    2.9232   -1.3943    0.0000 H   0  0  0  0  0  0  0  0  0  0  0  0
    3.2252   -0.2673    0.0000 H   0  0  0  0  0  0  0  0  0  0  0  0
    2.7875    0.4880    0.0000 H   0  0  0  0  0  0  0  0  0  0  0  0
    2.1462    0.8583    0.0000 H   0  0  0  0  0  0  0  0  0  0  0  0
    1.5500    1.2025    0.0000 H   0  0  0  0  0  0  0  0  0  0  0  0
    0.9087    1.5727    0.0000 H   0  0  0  0  0  0  0  0  0  0  0  0
    0.0357    1.5741    0.0000 H   0  0  0  0  0  0  0  0  0  0  0  0
   -0.7893    0.7491    0.0000 H   0  0  0  0  0  0  0  0  0  0  0  0
    0.0357   -0.0759    0.0000 H   0  0  0  0  0  0  0  0  0  0  0  0
  1  2  1  0  0  0  0
  2  3  1  0  0  0  0
  3  4  1  0  0  0  0
  4  5  1  0  0  0  0
  1  6  1  0  0  0  0
  1  7  1  0  0  0  0
  1  8  1  0  0  0  0
  2  9  1  0  0  0  0
  2 10  1  0  0  0  0
  4 11  1  0  0  0  0
  4 12  1  0  0  0  0
  5 13  1  0  0  0  0
  5 14  1  0  0  0  0
  5 15  1  0  0  0  0
M  END
>  <id_input>
155

>  <InChIKey>
LJSQFQKUNVCTIA-UHFFFAOYSA-N

>  <substance_name>
(ethylsulfanyl)ethane

>  <casrn>
352-93-2

>  <Molecular weight>
90.18720245361328

>  <guideline>
OECD Guideline 404 (Acute Dermal Irritation / Corrosion)

>  <species>
rabbit

>  <type_of_coverage>
semiocclusive

>  <max_duration(hrs)>
4.0

>  <vehicle>
unchanged (no vehicle)

>  <edema/ erythema score>
1.85

>  <max_score>
4.0

>  <reversibility>
0.0

>  <Outcome>
1

>  <StandardizerResult>
Remove Explicit Hydrogens (ID: RemoveExplicitH)
Clear Stereo (ID: ClearStereo)
Wedge Clean (ID: WedgeClean)
Mesomerize (ID: Mesomerize)
Tautomerize (ID: Tautomerize)
Add Explicit Hydrogens (ID: AddExplicitH)
Neutralize (ID: Neutralize)
Clean 2D (ID: Clean2D)


$$$$

  Mrv1812 02121911042D          

 23 24  0  0  0  0            999 V2000
    0.8369    2.5543    0.0000 O   0  0  0  0  0  0  0  0  0  0  0  0
    0.1224    2.1418    0.0000 C   0  0  0  0  0  0  0  0  0  0  0  0
   -0.5921    2.5543    0.0000 C   0  0  0  0  0  0  0  0  0  0  0  0
   -1.3066    2.1418    0.0000 C   0  0  0  0  0  0  0  0  0  0  0  0
   -1.3066    1.3168    0.0000 C   0  0  0  0  0  0  0  0  0  0  0  0
   -0.5921    0.9043    0.0000 C   0  0  0  0  0  0  0  0  0  0  0  0
    0.1224    1.3168    0.0000 C   0  0  0  0  0  0  0  0  0  0  0  0
    0.8369    0.9043    0.0000 C   0  0  0  0  0  0  0  0  0  0  0  0
    0.8369    0.0793    0.0000 C   0  0  0  0  0  0  0  0  0  0  0  0
    1.5513   -0.3332    0.0000 C   0  0  0  0  0  0  0  0  0  0  0  0
    2.2658    0.0793    0.0000 C   0  0  0  0  0  0  0  0  0  0  0  0
    2.2658    0.9043    0.0000 C   0  0  0  0  0  0  0  0  0  0  0  0
    1.5513    1.3168    0.0000 C   0  0  0  0  0  0  0  0  0  0  0  0
    1.5513    2.1418    0.0000 H   0  0  0  0  0  0  0  0  0  0  0  0
   -0.5921    3.3793    0.0000 H   0  0  0  0  0  0  0  0  0  0  0  0
   -2.0210    2.5543    0.0000 H   0  0  0  0  0  0  0  0  0  0  0  0
   -2.0210    0.9043    0.0000 H   0  0  0  0  0  0  0  0  0  0  0  0
   -0.5921    0.0793    0.0000 H   0  0  0  0  0  0  0  0  0  0  0  0
    0.1224   -0.3332    0.0000 H   0  0  0  0  0  0  0  0  0  0  0  0
    1.5513   -1.1582    0.0000 H   0  0  0  0  0  0  0  0  0  0  0  0
    2.9803   -0.3332    0.0000 H   0  0  0  0  0  0  0  0  0  0  0  0
    2.9803    1.3168    0.0000 H   0  0  0  0  0  0  0  0  0  0  0  0
    2.2658    1.7293    0.0000 H   0  0  0  0  0  0  0  0  0  0  0  0
  1  2  1  0  0  0  0
  3  2  4  0  0  0  0
  4  3  4  0  0  0  0
  5  4  4  0  0  0  0
  6  5  4  0  0  0  0
  7  6  4  0  0  0  0
  7  8  1  0  0  0  0
  9  8  4  0  0  0  0
 10  9  4  0  0  0  0
 11 10  4  0  0  0  0
 12 11  4  0  0  0  0
 13 12  4  0  0  0  0
  2  7  4  0  0  0  0
  8 13  4  0  0  0  0
  1 14  1  0  0  0  0
  3 15  1  0  0  0  0
  4 16  1  0  0  0  0
  5 17  1  0  0  0  0
  6 18  1  0  0  0  0
  9 19  1  0  0  0  0
 10 20  1  0  0  0  0
 11 21  1  0  0  0  0
 12 22  1  0  0  0  0
 13 23  1  0  0  0  0
M  END
>  <id_input>
2600

>  <InChIKey>
LLEMOWNGBBNAJR-UHFFFAOYSA-N

>  <substance_name>
2-phenylphenol

>  <casrn>
90-43-7

>  <Molecular weight>
170.2071990966797

>  <guideline>
OECD Guideline 404 (Acute Dermal Irritation / Corrosion)

>  <species>
rabbit

>  <type_of_coverage>
occlusive

>  <max_duration(hrs)>
4.0

>  <vehicle>
water

>  <edema/ erythema score>
2.8

>  <max_score>
4.0

>  <reversibility>
1.0

>  <Outcome>
1

>  <StandardizerResult>
Remove Explicit Hydrogens (ID: RemoveExplicitH)
Dearomatize (ID: Dearomatize)
Clear Stereo (ID: ClearStereo)
Wedge Clean (ID: WedgeClean)
Mesomerize (ID: Mesomerize)
Tautomerize (ID: Tautomerize)
Aromatize (ID: Aromatize)
Add Explicit Hydrogens (ID: AddExplicitH)
Neutralize (ID: Neutralize)
Clean 2D (ID: Clean2D)


$$$$

  Mrv1812 02121911042D          

 41 41  0  0  0  0            999 V2000
    2.5642   -2.0792    0.0000 C   0  0  0  0  0  0  0  0  0  0  0  0
    2.5642   -1.2542    0.0000 C   0  0  0  0  0  0  0  0  0  0  0  0
    1.8497   -0.8417    0.0000 C   0  0  0  0  0  0  0  0  0  0  0  0
    1.8497   -0.0167    0.0000 C   0  0  0  0  0  0  0  0  0  0  0  0
    2.5642    0.3958    0.0000 C   0  0  0  0  0  0  0  0  0  0  0  0
    1.1352    0.3958    0.0000 C   0  0  0  0  0  0  0  0  0  0  0  0
    1.1352    1.2208    0.0000 O   0  0  0  0  0  0  0  0  0  0  0  0
    0.4208    1.6333    0.0000 C   0  0  0  0  0  0  0  0  0  0  0  0
   -0.2937    1.2208    0.0000 C   0  0  0  0  0  0  0  0  0  0  0  0
   -0.5759    1.9960    0.0000 C   0  0  0  0  0  0  0  0  0  0  0  0
   -1.1062    1.0775    0.0000 C   0  0  0  0  0  0  0  0  0  0  0  0
   -1.6365    1.7095    0.0000 C   0  0  0  0  0  0  0  0  0  0  0  0
   -2.4489    1.5662    0.0000 C   0  0  0  0  0  0  0  0  0  0  0  0
   -0.2937    0.3958    0.0000 C   0  0  0  0  0  0  0  0  0  0  0  0
    0.4208   -0.0167    0.0000 O   0  0  0  0  0  0  0  0  0  0  0  0
    1.7392   -2.0792    0.0000 H   0  0  0  0  0  0  0  0  0  0  0  0
    2.5642   -2.9042    0.0000 H   0  0  0  0  0  0  0  0  0  0  0  0
    3.3892   -2.0792    0.0000 H   0  0  0  0  0  0  0  0  0  0  0  0
    3.3878   -1.2063    0.0000 H   0  0  0  0  0  0  0  0  0  0  0  0
    3.0175   -0.5650    0.0000 H   0  0  0  0  0  0  0  0  0  0  0  0
    1.0261   -0.8897    0.0000 H   0  0  0  0  0  0  0  0  0  0  0  0
    1.3964   -1.5310    0.0000 H   0  0  0  0  0  0  0  0  0  0  0  0
    2.5642   -0.4292    0.0000 H   0  0  0  0  0  0  0  0  0  0  0  0
    3.3611    0.1822    0.0000 H   0  0  0  0  0  0  0  0  0  0  0  0
    2.9767    1.1102    0.0000 H   0  0  0  0  0  0  0  0  0  0  0  0
    1.9808    0.9791    0.0000 H   0  0  0  0  0  0  0  0  0  0  0  0
    1.8497    0.8083    0.0000 H   0  0  0  0  0  0  0  0  0  0  0  0
    0.7910    2.3705    0.0000 H   0  0  0  0  0  0  0  0  0  0  0  0
    0.0505    2.3705    0.0000 H   0  0  0  0  0  0  0  0  0  0  0  0
   -0.6572    2.8170    0.0000 H   0  0  0  0  0  0  0  0  0  0  0  0
   -1.3532    2.2722    0.0000 H   0  0  0  0  0  0  0  0  0  0  0  0
   -1.1570    1.4104    0.0000 H   0  0  0  0  0  0  0  0  0  0  0  0
   -1.7062    0.5113    0.0000 H   0  0  0  0  0  0  0  0  0  0  0  0
   -1.0104    0.2581    0.0000 H   0  0  0  0  0  0  0  0  0  0  0  0
   -2.1288    2.3714    0.0000 H   0  0  0  0  0  0  0  0  0  0  0  0
   -1.9186    0.9342    0.0000 H   0  0  0  0  0  0  0  0  0  0  0  0
   -2.9652    2.2097    0.0000 H   0  0  0  0  0  0  0  0  0  0  0  0
   -3.2634    1.4349    0.0000 H   0  0  0  0  0  0  0  0  0  0  0  0
   -2.7368    0.7931    0.0000 H   0  0  0  0  0  0  0  0  0  0  0  0
   -0.4308   -0.4178    0.0000 H   0  0  0  0  0  0  0  0  0  0  0  0
    0.4208    0.8083    0.0000 H   0  0  0  0  0  0  0  0  0  0  0  0
  1  2  1  0  0  0  0
  2  3  1  0  0  0  0
  3  4  1  0  0  0  0
  4  5  1  0  0  0  0
  4  6  1  0  0  0  0
  7  6  1  0  0  0  0
  8  7  1  0  0  0  0
  9  8  1  0  0  0  0
  9 10  1  0  0  0  0
  9 11  1  0  0  0  0
 11 12  1  0  0  0  0
 12 13  1  0  0  0  0
 14  9  1  0  0  0  0
 15 14  1  0  0  0  0
  6 15  1  0  0  0  0
  1 16  1  0  0  0  0
  1 17  1  0  0  0  0
  1 18  1  0  0  0  0
  2 19  1  0  0  0  0
  2 20  1  0  0  0  0
  3 21  1  0  0  0  0
  3 22  1  0  0  0  0
  4 23  1  0  0  0  0
  5 24  1  0  0  0  0
  5 25  1  0  0  0  0
  5 26  1  0  0  0  0
  6 27  1  0  0  0  0
  8 28  1  0  0  0  0
  8 29  1  0  0  0  0
 10 30  1  0  0  0  0
 10 31  1  0  0  0  0
 10 32  1  0  0  0  0
 11 33  1  0  0  0  0
 11 34  1  0  0  0  0
 12 35  1  0  0  0  0
 12 36  1  0  0  0  0
 13 37  1  0  0  0  0
 13 38  1  0  0  0  0
 13 39  1  0  0  0  0
 14 40  1  0  0  0  0
 14 41  1  0  0  0  0
M  END
>  <id_input>
2973

>  <InChIKey>
LODLFUCEWWWXPR-UHFFFAOYSA-N

>  <substance_name>
5-methyl-2-(pentan-2-yl)-5-propyl-1,3-dioxane

>  <casrn>
80480-24-6

>  <Molecular weight>
214.34434509277344

>  <guideline>
OECD Guideline 404 (Acute Dermal Irritation / Corrosion)

>  <species>
rabbit

>  <type_of_coverage>
semiocclusive

>  <max_duration(hrs)>
4.0

>  <vehicle>
unchanged (no vehicle)

>  <edema/ erythema score>
1.66666666666666

>  <max_score>
4.0

>  <reversibility>
0.0

>  <Outcome>
1

>  <StandardizerResult>
Remove Explicit Hydrogens (ID: RemoveExplicitH)
Clear Stereo (ID: ClearStereo)
Wedge Clean (ID: WedgeClean)
Mesomerize (ID: Mesomerize)
Tautomerize (ID: Tautomerize)
Add Explicit Hydrogens (ID: AddExplicitH)
Neutralize (ID: Neutralize)
Clean 2D (ID: Clean2D)


$$$$

  Mrv1812 02121911042D          

 22 23  0  0  0  0            999 V2000
   -0.1324   -1.4955    0.0000 C   0  0  0  0  0  0  0  0  0  0  0  0
   -0.0462   -0.6751    0.0000 C   0  0  0  0  0  0  0  0  0  0  0  0
    0.6683   -1.0876    0.0000 C   0  0  0  0  0  0  0  0  0  0  0  0
    1.3828   -0.6751    0.0000 C   0  0  0  0  0  0  0  0  0  0  0  0
    1.3828    0.1499    0.0000 C   0  0  0  0  0  0  0  0  0  0  0  0
    0.6683    0.5624    0.0000 C   0  0  0  0  0  0  0  0  0  0  0  0
   -0.0462    0.1499    0.0000 C   0  0  0  0  0  0  0  0  0  0  0  0
   -0.8308    0.4049    0.0000 C   0  0  0  0  0  0  0  0  0  0  0  0
   -1.0857    1.1895    0.0000 O   0  0  0  0  0  0  0  0  0  0  0  0
   -1.3157   -0.2626    0.0000 O   0  0  0  0  0  0  0  0  0  0  0  0
   -0.8308   -0.9300    0.0000 C   0  0  0  0  0  0  0  0  0  0  0  0
   -1.0857   -1.7146    0.0000 O   0  0  0  0  0  0  0  0  0  0  0  0
   -0.8946   -1.8113    0.0000 H   0  0  0  0  0  0  0  0  0  0  0  0
   -0.2187   -2.3160    0.0000 H   0  0  0  0  0  0  0  0  0  0  0  0
    0.5475   -1.9628    0.0000 H   0  0  0  0  0  0  0  0  0  0  0  0
    1.3528   -1.5480    0.0000 H   0  0  0  0  0  0  0  0  0  0  0  0
    0.6683   -0.2626    0.0000 H   0  0  0  0  0  0  0  0  0  0  0  0
    2.1519   -0.9734    0.0000 H   0  0  0  0  0  0  0  0  0  0  0  0
    2.1617   -0.4033    0.0000 H   0  0  0  0  0  0  0  0  0  0  0  0
    2.0441    0.6431    0.0000 H   0  0  0  0  0  0  0  0  0  0  0  0
    1.5556    0.9566    0.0000 H   0  0  0  0  0  0  0  0  0  0  0  0
    0.6683    1.3874    0.0000 H   0  0  0  0  0  0  0  0  0  0  0  0
  1  2  1  0  0  0  0
  3  2  1  0  0  0  0
  4  3  1  0  0  0  0
  5  4  1  0  0  0  0
  6  5  1  0  0  0  0
  7  6  2  0  0  0  0
  8  7  1  0  0  0  0
  8  9  2  0  0  0  0
 10  8  1  0  0  0  0
 11 10  1  0  0  0  0
 11 12  2  0  0  0  0
  7  2  1  0  0  0  0
  2 11  1  0  0  0  0
  1 13  1  0  0  0  0
  1 14  1  0  0  0  0
  1 15  1  0  0  0  0
  3 16  1  0  0  0  0
  3 17  1  0  0  0  0
  4 18  1  0  0  0  0
  4 19  1  0  0  0  0
  5 20  1  0  0  0  0
  5 21  1  0  0  0  0
  6 22  1  0  0  0  0
M  END
>  <id_input>
112

>  <InChIKey>
LOYDTBZMMPQJNI-UHFFFAOYSA-N

>  <substance_name>
(3aS,4R,7aR)-4-methyl-1,3,3a,4,7,7a-hexahydro-2-benzofuran-1,3-dione; (3aS,4S,7aR)-4-methyl-1,3,3a,4,7,7a-hexahydro-2-benzofuran-1,3-dione; 5-methyl-1,3,3a,4,7,7a-hexahydro-2-benzofuran-1,3-dione; 6-methyl-1,3,3a,4,5,7a-hexahydro-2-benzofuran-1,3-dione; 7-methyl-1,3,3a,4,5,7a-hexahydro-2-benzofuran-1,3-dione

>  <casrn>
11070-44-3

>  <Molecular weight>
166.1739044189453

>  <guideline>
other: Code of federal regulations, Title 16, Section 1500.41 (USA)

>  <species>
rabbit

>  <type_of_coverage>
occlusive

>  <max_duration(hrs)>
24.0

>  <vehicle>
unchanged (no vehicle)

>  <edema/ erythema score>
1.79

>  <max_score>
4.0

>  <reversibility>
0.0

>  <Outcome>
1

>  <StandardizerResult>
Remove Explicit Hydrogens (ID: RemoveExplicitH)
Clear Stereo (ID: ClearStereo)
Wedge Clean (ID: WedgeClean)
Mesomerize (ID: Mesomerize)
Tautomerize (ID: Tautomerize)
Add Explicit Hydrogens (ID: AddExplicitH)
Neutralize (ID: Neutralize)
Clean 2D (ID: Clean2D)


$$$$

  Mrv1812 02121911042D          

 15 14  0  0  0  0            999 V2000
    1.8120    1.7417    0.0000 C   0  0  0  0  0  0  0  0  0  0  0  0
    1.3995    1.0273    0.0000 O   0  0  0  0  0  0  0  0  0  0  0  0
    1.8120    0.3128    0.0000 C   0  0  0  0  0  0  0  0  0  0  0  0
    2.6370    0.3128    0.0000 O   0  0  0  0  0  0  0  0  0  0  0  0
    1.3995   -0.4017    0.0000 C   0  0  0  0  0  0  0  0  0  0  0  0
    1.8120   -1.1162    0.0000 C   0  0  0  0  0  0  0  0  0  0  0  0
    0.5745   -0.4017    0.0000 O   0  0  0  0  0  0  0  0  0  0  0  0
    2.5265    1.3292    0.0000 H   0  0  0  0  0  0  0  0  0  0  0  0
    2.2245    2.4562    0.0000 H   0  0  0  0  0  0  0  0  0  0  0  0
    1.0975    2.1542    0.0000 H   0  0  0  0  0  0  0  0  0  0  0  0
    2.2245   -0.4017    0.0000 H   0  0  0  0  0  0  0  0  0  0  0  0
    1.0151   -1.3297    0.0000 H   0  0  0  0  0  0  0  0  0  0  0  0
    1.8120   -1.9412    0.0000 H   0  0  0  0  0  0  0  0  0  0  0  0
    2.6089   -1.3297    0.0000 H   0  0  0  0  0  0  0  0  0  0  0  0
    0.1620    0.3128    0.0000 H   0  0  0  0  0  0  0  0  0  0  0  0
  1  2  1  0  0  0  0
  2  3  1  0  0  0  0
  3  4  2  0  0  0  0
  3  5  1  0  0  0  0
  5  6  1  0  0  0  0
  5  7  1  0  0  0  0
  1  8  1  0  0  0  0
  1  9  1  0  0  0  0
  1 10  1  0  0  0  0
  5 11  1  0  0  0  0
  6 12  1  0  0  0  0
  6 13  1  0  0  0  0
  6 14  1  0  0  0  0
  7 15  1  0  0  0  0
M  END
>  <id_input>
4549

>  <InChIKey>
LPEKGGXMPWTOCB-UHFFFAOYSA-N

>  <substance_name>
methyl 2-hydroxypropanoate

>  <casrn>
17392-83-5

>  <Molecular weight>
104.10452270507812

>  <guideline>
OECD Guideline 404 (Acute Dermal Irritation / Corrosion)

>  <species>
rabbit

>  <type_of_coverage>
semiocclusive

>  <max_duration(hrs)>
4.0

>  <vehicle>
unchanged (no vehicle)

>  <edema/ erythema score>
2.0

>  <max_score>
2.0

>  <reversibility>
0.0

>  <Outcome>
1

>  <StandardizerResult>
Remove Explicit Hydrogens (ID: RemoveExplicitH)
Clear Stereo (ID: ClearStereo)
Wedge Clean (ID: WedgeClean)
Mesomerize (ID: Mesomerize)
Tautomerize (ID: Tautomerize)
Add Explicit Hydrogens (ID: AddExplicitH)
Neutralize (ID: Neutralize)
Clean 2D (ID: Clean2D)


$$$$

  Mrv1812 02121911042D          

 44 43  0  0  0  0            999 V2000
   -0.4555   -0.7153    0.0000 C   0  0  0  0  0  0  0  0  0  0  0  0
    0.2590   -0.3028    0.0000 C   0  0  0  0  0  0  0  0  0  0  0  0
    0.9735   -0.7153    0.0000 C   0  0  0  0  0  0  0  0  0  0  0  0
    0.9735   -1.5403    0.0000 C   0  0  0  0  0  0  0  0  0  0  0  0
    1.6880   -0.3028    0.0000 O   0  0  0  0  0  0  0  0  0  0  0  0
    2.4024   -0.7153    0.0000 P   0  0  0  0  0  0  0  0  0  0  0  0
    1.9899   -1.4298    0.0000 S   0  0  0  0  0  0  0  0  0  0  0  0
    3.1169   -1.1278    0.0000 O   0  0  0  0  0  0  0  0  0  0  0  0
    3.8314   -0.7153    0.0000 C   0  0  0  0  0  0  0  0  0  0  0  0
    4.5458   -1.1278    0.0000 C   0  0  0  0  0  0  0  0  0  0  0  0
    5.2603   -0.7153    0.0000 C   0  0  0  0  0  0  0  0  0  0  0  0
    5.9748   -1.1278    0.0000 C   0  0  0  0  0  0  0  0  0  0  0  0
    6.6893   -0.7153    0.0000 C   0  0  0  0  0  0  0  0  0  0  0  0
    7.4037   -1.1278    0.0000 C   0  0  0  0  0  0  0  0  0  0  0  0
    8.1182   -0.7153    0.0000 C   0  0  0  0  0  0  0  0  0  0  0  0
    7.4037   -1.9528    0.0000 C   0  0  0  0  0  0  0  0  0  0  0  0
    2.8149   -0.0009    0.0000 S   0  0  0  0  0  0  0  0  0  0  0  0
   -0.8680   -0.0009    0.0000 H   0  0  0  0  0  0  0  0  0  0  0  0
   -1.1699   -1.1278    0.0000 H   0  0  0  0  0  0  0  0  0  0  0  0
   -0.0430   -1.4298    0.0000 H   0  0  0  0  0  0  0  0  0  0  0  0
    0.6293    0.4344    0.0000 H   0  0  0  0  0  0  0  0  0  0  0  0
   -0.1112    0.4344    0.0000 H   0  0  0  0  0  0  0  0  0  0  0  0
    0.2590   -1.1278    0.0000 H   0  0  0  0  0  0  0  0  0  0  0  0
    0.3901   -2.1237    0.0000 H   0  0  0  0  0  0  0  0  0  0  0  0
    1.3860   -2.2548    0.0000 H   0  0  0  0  0  0  0  0  0  0  0  0
    1.7704   -1.3268    0.0000 H   0  0  0  0  0  0  0  0  0  0  0  0
    4.2016    0.0219    0.0000 H   0  0  0  0  0  0  0  0  0  0  0  0
    3.4611    0.0219    0.0000 H   0  0  0  0  0  0  0  0  0  0  0  0
    4.1756   -1.8651    0.0000 H   0  0  0  0  0  0  0  0  0  0  0  0
    4.9161   -1.8651    0.0000 H   0  0  0  0  0  0  0  0  0  0  0  0
    5.6306    0.0219    0.0000 H   0  0  0  0  0  0  0  0  0  0  0  0
    4.8901    0.0219    0.0000 H   0  0  0  0  0  0  0  0  0  0  0  0
    5.6045   -1.8651    0.0000 H   0  0  0  0  0  0  0  0  0  0  0  0
    6.3450   -1.8651    0.0000 H   0  0  0  0  0  0  0  0  0  0  0  0
    7.0595    0.0219    0.0000 H   0  0  0  0  0  0  0  0  0  0  0  0
    6.3190    0.0219    0.0000 H   0  0  0  0  0  0  0  0  0  0  0  0
    7.4037   -0.3028    0.0000 H   0  0  0  0  0  0  0  0  0  0  0  0
    8.3317   -1.5122    0.0000 H   0  0  0  0  0  0  0  0  0  0  0  0
    8.9432   -0.7153    0.0000 H   0  0  0  0  0  0  0  0  0  0  0  0
    8.3317    0.0815    0.0000 H   0  0  0  0  0  0  0  0  0  0  0  0
    6.5787   -1.9528    0.0000 H   0  0  0  0  0  0  0  0  0  0  0  0
    7.4037   -2.7778    0.0000 H   0  0  0  0  0  0  0  0  0  0  0  0
    8.2287   -1.9528    0.0000 H   0  0  0  0  0  0  0  0  0  0  0  0
    2.3899    0.7062    0.0000 H   0  0  0  0  0  0  0  0  0  0  0  0
  1  2  1  0  0  0  0
  2  3  1  0  0  0  0
  3  4  1  0  0  0  0
  3  5  1  0  0  0  0
  5  6  1  0  0  0  0
  6  7  2  0  0  0  0
  6  8  1  0  0  0  0
  8  9  1  0  0  0  0
  9 10  1  0  0  0  0
 10 11  1  0  0  0  0
 11 12  1  0  0  0  0
 12 13  1  0  0  0  0
 13 14  1  0  0  0  0
 14 15  1  0  0  0  0
 14 16  1  0  0  0  0
  6 17  1  0  0  0  0
  1 18  1  0  0  0  0
  1 19  1  0  0  0  0
  1 20  1  0  0  0  0
  2 21  1  0  0  0  0
  2 22  1  0  0  0  0
  3 23  1  0  0  0  0
  4 24  1  0  0  0  0
  4 25  1  0  0  0  0
  4 26  1  0  0  0  0
  9 27  1  0  0  0  0
  9 28  1  0  0  0  0
 10 29  1  0  0  0  0
 10 30  1  0  0  0  0
 11 31  1  0  0  0  0
 11 32  1  0  0  0  0
 12 33  1  0  0  0  0
 12 34  1  0  0  0  0
 13 35  1  0  0  0  0
 13 36  1  0  0  0  0
 14 37  1  0  0  0  0
 15 38  1  0  0  0  0
 15 39  1  0  0  0  0
 15 40  1  0  0  0  0
 16 41  1  0  0  0  0
 16 42  1  0  0  0  0
 16 43  1  0  0  0  0
 17 44  1  0  0  0  0
M  END
>  <id_input>
2143, 2144

>  <InChIKey>
LPEQNMKNSKSCGZ-UHFFFAOYSA-N

>  <substance_name>
2,6-bis(butan-2-yloxy)-2,6-bis[(6-methylheptyl)oxy]-1????????-thia-3????????-thia-5????????-thia-7????????-thia-2??????????,6??????????-diphospha-4-zincaspiro[3.3]hepta-2,6-diene-4,4-bis(ylium)-1,5-diide

>  <casrn>
93819-94-4

>  <Molecular weight>
297.4374084472656

>  <guideline>
OECD Guideline 404 (Acute Dermal Irritation / Corrosion)

>  <species>
rabbit

>  <type_of_coverage>
semiocclusive

>  <max_duration(hrs)>
4.0

>  <vehicle>
other: mineral oil

>  <edema/ erythema score>
2.323

>  <max_score>
4.0

>  <reversibility>
1.0

>  <Outcome>
1

>  <StandardizerResult>
Remove Explicit Hydrogens (ID: RemoveExplicitH)
Clear Stereo (ID: ClearStereo)
Wedge Clean (ID: WedgeClean)
Mesomerize (ID: Mesomerize)
Tautomerize (ID: Tautomerize)
Add Explicit Hydrogens (ID: AddExplicitH)
Neutralize (ID: Neutralize)
Clean 2D (ID: Clean2D)


$$$$

  Mrv1812 02121911042D          

 69 68  0  0  0  0            999 V2000
   -3.9681    4.8224    0.0000 C   0  0  0  0  0  0  0  0  0  0  0  0
   -3.8122    4.0122    0.0000 C   0  0  0  0  0  0  0  0  0  0  0  0
   -3.0326    3.7422    0.0000 C   0  0  0  0  0  0  0  0  0  0  0  0
   -2.8767    2.9320    0.0000 C   0  0  0  0  0  0  0  0  0  0  0  0
   -2.0972    2.6620    0.0000 C   0  0  0  0  0  0  0  0  0  0  0  0
   -1.9413    1.8519    0.0000 C   0  0  0  0  0  0  0  0  0  0  0  0
   -1.1617    1.5818    0.0000 C   0  0  0  0  0  0  0  0  0  0  0  0
   -1.0058    0.7717    0.0000 C   0  0  0  0  0  0  0  0  0  0  0  0
   -0.2262    0.5016    0.0000 C   0  0  0  0  0  0  0  0  0  0  0  0
   -0.0703   -0.3085    0.0000 C   0  0  0  0  0  0  0  0  0  0  0  0
    0.7092   -0.5785    0.0000 C   0  0  0  0  0  0  0  0  0  0  0  0
    1.3329   -0.0385    0.0000 C   0  0  0  0  0  0  0  0  0  0  0  0
    2.1124   -0.3085    0.0000 C   0  0  0  0  0  0  0  0  0  0  0  0
    2.7361    0.2316    0.0000 C   0  0  0  0  0  0  0  0  0  0  0  0
    3.5156   -0.0385    0.0000 C   0  0  0  0  0  0  0  0  0  0  0  0
    4.1393    0.5016    0.0000 C   0  0  0  0  0  0  0  0  0  0  0  0
    4.9188    0.2316    0.0000 C   0  0  0  0  0  0  0  0  0  0  0  0
    5.5424    0.7717    0.0000 C   0  0  0  0  0  0  0  0  0  0  0  0
    5.3865    1.5818    0.0000 O   0  0  0  0  0  0  0  0  0  0  0  0
    6.3220    0.5016    0.0000 N   0  0  0  0  0  0  0  0  0  0  0  0
    6.9456    1.0417    0.0000 C   0  0  0  0  0  0  0  0  0  0  0  0
    7.7252    0.7717    0.0000 C   0  0  0  0  0  0  0  0  0  0  0  0
    8.3488    1.3118    0.0000 O   0  0  0  0  0  0  0  0  0  0  0  0
    6.4779   -0.3085    0.0000 C   0  0  0  0  0  0  0  0  0  0  0  0
    7.2575   -0.5785    0.0000 C   0  0  0  0  0  0  0  0  0  0  0  0
    7.4134   -1.3887    0.0000 O   0  0  0  0  0  0  0  0  0  0  0  0
   -3.1580    4.9783    0.0000 H   0  0  0  0  0  0  0  0  0  0  0  0
   -4.1240    5.6325    0.0000 H   0  0  0  0  0  0  0  0  0  0  0  0
   -4.7782    4.6664    0.0000 H   0  0  0  0  0  0  0  0  0  0  0  0
   -4.6119    3.8095    0.0000 H   0  0  0  0  0  0  0  0  0  0  0  0
   -4.1271    3.2497    0.0000 H   0  0  0  0  0  0  0  0  0  0  0  0
   -2.2329    3.9449    0.0000 H   0  0  0  0  0  0  0  0  0  0  0  0
   -2.7177    4.5047    0.0000 H   0  0  0  0  0  0  0  0  0  0  0  0
   -3.6764    2.7293    0.0000 H   0  0  0  0  0  0  0  0  0  0  0  0
   -3.1916    2.1695    0.0000 H   0  0  0  0  0  0  0  0  0  0  0  0
   -1.2975    2.8647    0.0000 H   0  0  0  0  0  0  0  0  0  0  0  0
   -1.7822    3.4245    0.0000 H   0  0  0  0  0  0  0  0  0  0  0  0
   -2.7409    1.6491    0.0000 H   0  0  0  0  0  0  0  0  0  0  0  0
   -2.2562    1.0893    0.0000 H   0  0  0  0  0  0  0  0  0  0  0  0
   -0.3620    1.7846    0.0000 H   0  0  0  0  0  0  0  0  0  0  0  0
   -0.8468    2.3443    0.0000 H   0  0  0  0  0  0  0  0  0  0  0  0
   -1.8055    0.5689    0.0000 H   0  0  0  0  0  0  0  0  0  0  0  0
   -1.3207    0.0092    0.0000 H   0  0  0  0  0  0  0  0  0  0  0  0
    0.3974    1.0417    0.0000 H   0  0  0  0  0  0  0  0  0  0  0  0
   -0.6940   -0.8486    0.0000 H   0  0  0  0  0  0  0  0  0  0  0  0
    0.4850   -1.3725    0.0000 H   0  0  0  0  0  0  0  0  0  0  0  0
    1.2121   -1.2325    0.0000 H   0  0  0  0  0  0  0  0  0  0  0  0
    1.5571    0.7555    0.0000 H   0  0  0  0  0  0  0  0  0  0  0  0
    0.8300    0.6155    0.0000 H   0  0  0  0  0  0  0  0  0  0  0  0
    1.8882   -1.1024    0.0000 H   0  0  0  0  0  0  0  0  0  0  0  0
    2.6153   -0.9625    0.0000 H   0  0  0  0  0  0  0  0  0  0  0  0
    2.9603    1.0255    0.0000 H   0  0  0  0  0  0  0  0  0  0  0  0
    2.2331    0.8856    0.0000 H   0  0  0  0  0  0  0  0  0  0  0  0
    3.2913   -0.8324    0.0000 H   0  0  0  0  0  0  0  0  0  0  0  0
    4.0185   -0.6924    0.0000 H   0  0  0  0  0  0  0  0  0  0  0  0
    4.3635    1.2956    0.0000 H   0  0  0  0  0  0  0  0  0  0  0  0
    3.6363    1.1556    0.0000 H   0  0  0  0  0  0  0  0  0  0  0  0
    4.6945   -0.5623    0.0000 H   0  0  0  0  0  0  0  0  0  0  0  0
    5.4217   -0.4224    0.0000 H   0  0  0  0  0  0  0  0  0  0  0  0
    7.1699    1.8357    0.0000 H   0  0  0  0  0  0  0  0  0  0  0  0
    6.4427    1.6957    0.0000 H   0  0  0  0  0  0  0  0  0  0  0  0
    7.5009   -0.0223    0.0000 H   0  0  0  0  0  0  0  0  0  0  0  0
    8.2281    0.1177    0.0000 H   0  0  0  0  0  0  0  0  0  0  0  0
    9.1284    1.0417    0.0000 H   0  0  0  0  0  0  0  0  0  0  0  0
    5.6782   -0.5112    0.0000 H   0  0  0  0  0  0  0  0  0  0  0  0
    6.1630   -1.0710    0.0000 H   0  0  0  0  0  0  0  0  0  0  0  0
    8.0774   -0.6701    0.0000 H   0  0  0  0  0  0  0  0  0  0  0  0
    6.6338   -1.1186    0.0000 H   0  0  0  0  0  0  0  0  0  0  0  0
    7.9535   -2.0123    0.0000 H   0  0  0  0  0  0  0  0  0  0  0  0
  1  2  1  0  0  0  0
  2  3  1  0  0  0  0
  3  4  1  0  0  0  0
  4  5  1  0  0  0  0
  5  6  1  0  0  0  0
  6  7  1  0  0  0  0
  7  8  1  0  0  0  0
  9  8  1  4  0  0  0
  9 10  2  0  0  0  0
 10 11  1  0  0  0  0
 11 12  1  0  0  0  0
 12 13  1  0  0  0  0
 13 14  1  0  0  0  0
 14 15  1  0  0  0  0
 15 16  1  0  0  0  0
 16 17  1  0  0  0  0
 17 18  1  0  0  0  0
 18 19  2  0  0  0  0
 18 20  1  0  0  0  0
 20 21  1  0  0  0  0
 21 22  1  0  0  0  0
 22 23  1  0  0  0  0
 20 24  1  0  0  0  0
 24 25  1  0  0  0  0
 25 26  1  0  0  0  0
  1 27  1  0  0  0  0
  1 28  1  0  0  0  0
  1 29  1  0  0  0  0
  2 30  1  0  0  0  0
  2 31  1  0  0  0  0
  3 32  1  0  0  0  0
  3 33  1  0  0  0  0
  4 34  1  0  0  0  0
  4 35  1  0  0  0  0
  5 36  1  0  0  0  0
  5 37  1  0  0  0  0
  6 38  1  0  0  0  0
  6 39  1  0  0  0  0
  7 40  1  0  0  0  0
  7 41  1  0  0  0  0
  8 42  1  0  0  0  0
  8 43  1  0  0  0  0
  9 44  1  0  0  0  0
 10 45  1  0  0  0  0
 11 46  1  0  0  0  0
 11 47  1  0  0  0  0
 12 48  1  0  0  0  0
 12 49  1  0  0  0  0
 13 50  1  0  0  0  0
 13 51  1  0  0  0  0
 14 52  1  0  0  0  0
 14 53  1  0  0  0  0
 15 54  1  0  0  0  0
 15 55  1  0  0  0  0
 16 56  1  0  0  0  0
 16 57  1  0  0  0  0
 17 58  1  0  0  0  0
 17 59  1  0  0  0  0
 21 60  1  0  0  0  0
 21 61  1  0  0  0  0
 22 62  1  0  0  0  0
 22 63  1  0  0  0  0
 23 64  1  0  0  0  0
 24 65  1  0  0  0  0
 24 66  1  0  0  0  0
 25 67  1  0  0  0  0
 25 68  1  0  0  0  0
 26 69  1  0  0  0  0
M  END
>  <id_input>
137

>  <InChIKey>
LPMBTLLQQJBUOO-UHFFFAOYSA-N

>  <substance_name>
(9Z)-N,N-bis(2-hydroxyethyl)octadec-9-enamide

>  <casrn>
93-83-4

>  <Molecular weight>
369.58172607421875

>  <guideline>
other: Title 21, Code of Federal Regulations, 191.11.

>  <species>
rabbit

>  <type_of_coverage>
semiocclusive

>  <max_duration(hrs)>
24.0

>  <vehicle>
unchanged (no vehicle)

>  <edema/ erythema score>
3.0

>  <max_score>
4.0

>  <reversibility>
1.0

>  <Outcome>
1

>  <StandardizerResult>
Remove Explicit Hydrogens (ID: RemoveExplicitH)
Clear Stereo (ID: ClearStereo)
Wedge Clean (ID: WedgeClean)
Mesomerize (ID: Mesomerize)
Tautomerize (ID: Tautomerize)
Add Explicit Hydrogens (ID: AddExplicitH)
Neutralize (ID: Neutralize)
Clean 2D (ID: Clean2D)


$$$$

  Mrv1812 02121911042D          

 20 20  0  0  0  0            999 V2000
    0.5969    0.2316    0.0000 C   0  0  0  0  0  0  0  0  0  0  0  0
   -0.1176    0.6441    0.0000 C   0  0  0  0  0  0  0  0  0  0  0  0
   -0.8321    0.2316    0.0000 C   0  0  0  0  0  0  0  0  0  0  0  0
   -1.5465    0.6441    0.0000 C   0  0  0  0  0  0  0  0  0  0  0  0
   -1.5465    1.4691    0.0000 O   0  0  0  0  0  0  0  0  0  0  0  0
   -0.8321   -0.5934    0.0000 C   0  0  0  0  0  0  0  0  0  0  0  0
   -0.1176   -1.0059    0.0000 C   0  0  0  0  0  0  0  0  0  0  0  0
    0.5969   -0.5934    0.0000 C   0  0  0  0  0  0  0  0  0  0  0  0
   -0.1176   -1.8309    0.0000 C   0  0  0  0  0  0  0  0  0  0  0  0
    0.5969   -2.2434    0.0000 O   0  0  0  0  0  0  0  0  0  0  0  0
   -1.5465   -1.0059    0.0000 Cl  0  0  0  0  0  0  0  0  0  0  0  0
    1.4205    0.2796    0.0000 H   0  0  0  0  0  0  0  0  0  0  0  0
    1.0502    0.9209    0.0000 H   0  0  0  0  0  0  0  0  0  0  0  0
    0.2527    1.3814    0.0000 H   0  0  0  0  0  0  0  0  0  0  0  0
   -0.4878    1.3814    0.0000 H   0  0  0  0  0  0  0  0  0  0  0  0
   -0.8321    1.0566    0.0000 H   0  0  0  0  0  0  0  0  0  0  0  0
   -2.2610    0.2316    0.0000 H   0  0  0  0  0  0  0  0  0  0  0  0
    1.0502   -1.2827    0.0000 H   0  0  0  0  0  0  0  0  0  0  0  0
    1.4205   -0.6414    0.0000 H   0  0  0  0  0  0  0  0  0  0  0  0
   -0.8321   -2.2434    0.0000 H   0  0  0  0  0  0  0  0  0  0  0  0
  2  1  1  0  0  0  0
  3  2  1  0  0  0  0
  3  4  1  0  0  0  0
  4  5  2  0  0  0  0
  6  3  1  0  0  0  0
  7  6  2  0  0  0  0
  8  7  1  0  0  0  0
  7  9  1  0  0  0  0
  9 10  2  0  0  0  0
  6 11  1  0  0  0  0
  1  8  1  0  0  0  0
  1 12  1  0  0  0  0
  1 13  1  0  0  0  0
  2 14  1  0  0  0  0
  2 15  1  0  0  0  0
  3 16  1  0  0  0  0
  4 17  1  0  0  0  0
  8 18  1  0  0  0  0
  8 19  1  0  0  0  0
  9 20  1  0  0  0  0
M  END
>  <id_input>
1139

>  <InChIKey>
LRJWYIUXHTVYCT-UHFFFAOYSA-N

>  <substance_name>
-

>  <casrn>
1416808-92-8

>  <Molecular weight>
172.60885620117188

>  <guideline>
OECD Guideline 404 (Acute Dermal Irritation / Corrosion)

>  <species>
rabbit

>  <type_of_coverage>
semiocclusive

>  <max_duration(hrs)>
4.0

>  <vehicle>
other: moistened with water (Milli-U), immediately before application, to ensure close contact with the animals skin

>  <edema/ erythema score>
1.66666666666666

>  <reversibility>
0.0

>  <Outcome>
1

>  <StandardizerResult>
Remove Explicit Hydrogens (ID: RemoveExplicitH)
Clear Stereo (ID: ClearStereo)
Wedge Clean (ID: WedgeClean)
Mesomerize (ID: Mesomerize)
Tautomerize (ID: Tautomerize)
Add Explicit Hydrogens (ID: AddExplicitH)
Neutralize (ID: Neutralize)
Clean 2D (ID: Clean2D)


$$$$

  Mrv1812 02121911042D          

 28 27  0  0  0  0            999 V2000
    0.1916    1.0155    0.0000 C   0  0  0  0  0  0  0  0  0  0  0  0
    0.6041    0.3011    0.0000 C   0  0  0  0  0  0  0  0  0  0  0  0
    1.4291    0.3011    0.0000 C   0  0  0  0  0  0  0  0  0  0  0  0
    1.8416   -0.4134    0.0000 C   0  0  0  0  0  0  0  0  0  0  0  0
    2.6666   -0.4134    0.0000 C   0  0  0  0  0  0  0  0  0  0  0  0
    3.0791   -1.1279    0.0000 C   0  0  0  0  0  0  0  0  0  0  0  0
    3.9041   -1.1279    0.0000 C   0  0  0  0  0  0  0  0  0  0  0  0
    3.0791    0.3011    0.0000 C   0  0  0  0  0  0  0  0  0  0  0  0
    3.9041    0.3011    0.0000 N   0  0  0  0  0  0  0  0  0  0  0  0
    0.9061    1.4280    0.0000 H   0  0  0  0  0  0  0  0  0  0  0  0
   -0.2209    1.7300    0.0000 H   0  0  0  0  0  0  0  0  0  0  0  0
   -0.5229    0.6030    0.0000 H   0  0  0  0  0  0  0  0  0  0  0  0
   -0.0852   -0.1523    0.0000 H   0  0  0  0  0  0  0  0  0  0  0  0
    0.5561   -0.5225    0.0000 H   0  0  0  0  0  0  0  0  0  0  0  0
    2.1184    0.7544    0.0000 H   0  0  0  0  0  0  0  0  0  0  0  0
    1.4771    1.1247    0.0000 H   0  0  0  0  0  0  0  0  0  0  0  0
    1.1523   -0.8668    0.0000 H   0  0  0  0  0  0  0  0  0  0  0  0
    1.7936   -1.2370    0.0000 H   0  0  0  0  0  0  0  0  0  0  0  0
    2.2541   -1.1279    0.0000 H   0  0  0  0  0  0  0  0  0  0  0  0
    2.7969   -1.9031    0.0000 H   0  0  0  0  0  0  0  0  0  0  0  0
    3.3613   -1.9031    0.0000 H   0  0  0  0  0  0  0  0  0  0  0  0
    4.4481   -1.7481    0.0000 H   0  0  0  0  0  0  0  0  0  0  0  0
    4.6359   -0.7469    0.0000 H   0  0  0  0  0  0  0  0  0  0  0  0
    3.7080   -0.3265    0.0000 H   0  0  0  0  0  0  0  0  0  0  0  0
    3.0311    1.1247    0.0000 H   0  0  0  0  0  0  0  0  0  0  0  0
    2.3898    0.7544    0.0000 H   0  0  0  0  0  0  0  0  0  0  0  0
    4.7267    0.3643    0.0000 H   0  0  0  0  0  0  0  0  0  0  0  0
    4.2098    1.0673    0.0000 H   0  0  0  0  0  0  0  0  0  0  0  0
  1  2  1  0  0  0  0
  2  3  1  0  0  0  0
  3  4  1  0  0  0  0
  4  5  1  0  0  0  0
  5  6  1  0  0  0  0
  6  7  1  0  0  0  0
  5  8  1  0  0  0  0
  8  9  1  0  0  0  0
  1 10  1  0  0  0  0
  1 11  1  0  0  0  0
  1 12  1  0  0  0  0
  2 13  1  0  0  0  0
  2 14  1  0  0  0  0
  3 15  1  0  0  0  0
  3 16  1  0  0  0  0
  4 17  1  0  0  0  0
  4 18  1  0  0  0  0
  5 19  1  0  0  0  0
  6 20  1  0  0  0  0
  6 21  1  0  0  0  0
  7 22  1  0  0  0  0
  7 23  1  0  0  0  0
  7 24  1  0  0  0  0
  8 25  1  0  0  0  0
  8 26  1  0  0  0  0
  9 27  1  0  0  0  0
  9 28  1  0  0  0  0
M  END
>  <id_input>
2699

>  <InChIKey>
LTHNHFOGQMKPOV-UHFFFAOYSA-N

>  <substance_name>
3-(aminomethyl)heptane

>  <casrn>
104-75-6

>  <Molecular weight>
129.2431640625

>  <guideline>
OECD Guideline 404 (Acute Dermal Irritation / Corrosion)

>  <species>
rabbit

>  <type_of_coverage>
semiocclusive

>  <max_duration(hrs)>
0.05

>  <vehicle>
unchanged (no vehicle)

>  <edema/ erythema score>
4.0

>  <max_score>
4.0

>  <reversibility>
1.0

>  <Outcome>
1

>  <StandardizerResult>
Remove Explicit Hydrogens (ID: RemoveExplicitH)
Clear Stereo (ID: ClearStereo)
Wedge Clean (ID: WedgeClean)
Mesomerize (ID: Mesomerize)
Tautomerize (ID: Tautomerize)
Add Explicit Hydrogens (ID: AddExplicitH)
Neutralize (ID: Neutralize)
Clean 2D (ID: Clean2D)


$$$$

  Mrv1812 02121911042D          

 28 29  0  0  0  0            999 V2000
    1.7947   -1.0713    0.0000 O   0  0  0  0  0  0  0  0  0  0  0  0
    0.9822   -0.9281    0.0000 C   0  0  0  0  0  0  0  0  0  0  0  0
    0.2678   -0.5156    0.0000 C   0  0  0  0  0  0  0  0  0  0  0  0
   -0.4467   -0.9281    0.0000 C   0  0  0  0  0  0  0  0  0  0  0  0
   -0.4467   -1.7531    0.0000 N   0  0  0  0  0  0  0  0  0  0  0  0
    0.2678   -2.1656    0.0000 C   0  0  0  0  0  0  0  0  0  0  0  0
    0.9822   -1.7531    0.0000 C   0  0  0  0  0  0  0  0  0  0  0  0
    1.2644   -0.1528    0.0000 C   0  0  0  0  0  0  0  0  0  0  0  0
    2.0769   -0.0096    0.0000 C   0  0  0  0  0  0  0  0  0  0  0  0
    2.3590    0.7657    0.0000 C   0  0  0  0  0  0  0  0  0  0  0  0
    1.8287    1.3977    0.0000 C   0  0  0  0  0  0  0  0  0  0  0  0
    2.1109    2.1729    0.0000 Cl  0  0  0  0  0  0  0  0  0  0  0  0
    1.0163    1.2544    0.0000 C   0  0  0  0  0  0  0  0  0  0  0  0
    0.7341    0.4792    0.0000 C   0  0  0  0  0  0  0  0  0  0  0  0
    2.0769   -1.8466    0.0000 H   0  0  0  0  0  0  0  0  0  0  0  0
    0.6380    0.2217    0.0000 H   0  0  0  0  0  0  0  0  0  0  0  0
   -0.1025    0.2217    0.0000 H   0  0  0  0  0  0  0  0  0  0  0  0
   -0.9001   -0.2388    0.0000 H   0  0  0  0  0  0  0  0  0  0  0  0
   -1.2703   -0.8801    0.0000 H   0  0  0  0  0  0  0  0  0  0  0  0
   -1.1612   -2.1656    0.0000 H   0  0  0  0  0  0  0  0  0  0  0  0
   -0.1025   -2.9028    0.0000 H   0  0  0  0  0  0  0  0  0  0  0  0
    0.6380   -2.9028    0.0000 H   0  0  0  0  0  0  0  0  0  0  0  0
    1.4356   -2.4423    0.0000 H   0  0  0  0  0  0  0  0  0  0  0  0
    1.8058   -1.8010    0.0000 H   0  0  0  0  0  0  0  0  0  0  0  0
    2.6072   -0.6415    0.0000 H   0  0  0  0  0  0  0  0  0  0  0  0
    3.1715    0.9089    0.0000 H   0  0  0  0  0  0  0  0  0  0  0  0
    0.4860    1.8864    0.0000 H   0  0  0  0  0  0  0  0  0  0  0  0
    0.1656    1.0771    0.0000 H   0  0  0  0  0  0  0  0  0  0  0  0
  1  2  1  0  0  0  0
  3  2  1  0  0  0  0
  4  3  1  0  0  0  0
  5  4  1  0  0  0  0
  6  5  1  0  0  0  0
  7  6  1  0  0  0  0
  2  8  1  0  0  0  0
  9  8  4  0  0  0  0
 10  9  4  0  0  0  0
 11 10  4  0  0  0  0
 11 12  1  0  0  0  0
 13 11  4  0  0  0  0
 14 13  4  0  0  0  0
  2  7  1  0  0  0  0
  8 14  4  0  0  0  0
  1 15  1  0  0  0  0
  3 16  1  0  0  0  0
  3 17  1  0  0  0  0
  4 18  1  0  0  0  0
  4 19  1  0  0  0  0
  5 20  1  0  0  0  0
  6 21  1  0  0  0  0
  6 22  1  0  0  0  0
  7 23  1  0  0  0  0
  7 24  1  0  0  0  0
  9 25  1  0  0  0  0
 10 26  1  0  0  0  0
 13 27  1  0  0  0  0
 14 28  1  0  0  0  0
M  END
>  <id_input>
2831

>  <InChIKey>
LZAYOZUFUAMFLD-UHFFFAOYSA-N

>  <substance_name>
4-(4-chlorophenyl)piperidin-4-ol

>  <casrn>
39512-49-7

>  <Molecular weight>
211.68795776367188

>  <guideline>
OECD Guideline 404 (Acute Dermal Irritation / Corrosion)

>  <species>
rabbit

>  <type_of_coverage>
semiocclusive

>  <max_duration(hrs)>
4.0

>  <vehicle>
unchanged (no vehicle)

>  <edema/ erythema score>
2.11333333333333

>  <max_score>
4.0

>  <reversibility>
0.0

>  <Outcome>
1

>  <StandardizerResult>
Remove Explicit Hydrogens (ID: RemoveExplicitH)
Dearomatize (ID: Dearomatize)
Clear Stereo (ID: ClearStereo)
Wedge Clean (ID: WedgeClean)
Mesomerize (ID: Mesomerize)
Tautomerize (ID: Tautomerize)
Aromatize (ID: Aromatize)
Add Explicit Hydrogens (ID: AddExplicitH)
Neutralize (ID: Neutralize)
Clean 2D (ID: Clean2D)


$$$$

  Mrv1812 02121911042D          

 15 15  0  0  0  0            999 V2000
    1.2880    1.3509    0.0000 Cl  0  0  0  0  0  0  0  0  0  0  0  0
    0.5736    0.9384    0.0000 C   0  0  0  0  0  0  0  0  0  0  0  0
   -0.1409    1.3509    0.0000 C   0  0  0  0  0  0  0  0  0  0  0  0
   -0.8554    0.9384    0.0000 C   0  0  0  0  0  0  0  0  0  0  0  0
   -0.8554    0.1134    0.0000 C   0  0  0  0  0  0  0  0  0  0  0  0
   -0.1409   -0.2991    0.0000 C   0  0  0  0  0  0  0  0  0  0  0  0
    0.5736    0.1134    0.0000 C   0  0  0  0  0  0  0  0  0  0  0  0
    1.2880   -0.2991    0.0000 C   0  0  0  0  0  0  0  0  0  0  0  0
    2.0025   -0.7116    0.0000 Cl  0  0  0  0  0  0  0  0  0  0  0  0
    0.8755   -1.0136    0.0000 Cl  0  0  0  0  0  0  0  0  0  0  0  0
    1.7005    0.4154    0.0000 Cl  0  0  0  0  0  0  0  0  0  0  0  0
   -0.1409    2.1759    0.0000 H   0  0  0  0  0  0  0  0  0  0  0  0
   -1.5699    1.3509    0.0000 H   0  0  0  0  0  0  0  0  0  0  0  0
   -1.5699   -0.2991    0.0000 H   0  0  0  0  0  0  0  0  0  0  0  0
   -0.1409   -1.1241    0.0000 H   0  0  0  0  0  0  0  0  0  0  0  0
  1  2  1  0  0  0  0
  3  2  4  0  0  0  0
  4  3  4  0  0  0  0
  5  4  4  0  0  0  0
  6  5  4  0  0  0  0
  7  6  4  0  0  0  0
  7  8  1  0  0  0  0
  8  9  1  0  0  0  0
  8 10  1  0  0  0  0
  8 11  1  0  0  0  0
  2  7  4  0  0  0  0
  3 12  1  0  0  0  0
  4 13  1  0  0  0  0
  5 14  1  0  0  0  0
  6 15  1  0  0  0  0
M  END
>  <id_input>
1914

>  <InChIKey>
MFHPYLFZSCSNST-UHFFFAOYSA-N

>  <substance_name>
1-chloro-2-(trichloromethyl)benzene

>  <casrn>
2136-89-2

>  <Molecular weight>
229.9186553955078

>  <guideline>
OECD Guideline 404 (Acute Dermal Irritation / Corrosion)

>  <species>
rabbit

>  <type_of_coverage>
semiocclusive

>  <max_duration(hrs)>
4.0

>  <vehicle>
unchanged (no vehicle)

>  <edema/ erythema score>
2.0

>  <max_score>
4.0

>  <reversibility>
0.0

>  <Outcome>
1

>  <StandardizerResult>
Remove Explicit Hydrogens (ID: RemoveExplicitH)
Dearomatize (ID: Dearomatize)
Clear Stereo (ID: ClearStereo)
Wedge Clean (ID: WedgeClean)
Mesomerize (ID: Mesomerize)
Tautomerize (ID: Tautomerize)
Aromatize (ID: Aromatize)
Add Explicit Hydrogens (ID: AddExplicitH)
Neutralize (ID: Neutralize)
Clean 2D (ID: Clean2D)


$$$$

  Mrv1812 02121911042D          

 39 39  0  0  0  0            999 V2000
    2.6499   -0.3008    0.0000 C   0  0  0  0  0  0  0  0  0  0  0  0
    2.7932    0.5116    0.0000 C   0  0  0  0  0  0  0  0  0  0  0  0
    2.9365    1.3241    0.0000 C   0  0  0  0  0  0  0  0  0  0  0  0
    1.9807    0.6549    0.0000 O   0  0  0  0  0  0  0  0  0  0  0  0
    1.4504    0.0229    0.0000 O   0  0  0  0  0  0  0  0  0  0  0  0
    0.6380    0.1662    0.0000 C   0  0  0  0  0  0  0  0  0  0  0  0
   -0.0765    0.5787    0.0000 C   0  0  0  0  0  0  0  0  0  0  0  0
   -0.7910    0.1662    0.0000 C   0  0  0  0  0  0  0  0  0  0  0  0
   -0.7910   -0.6588    0.0000 C   0  0  0  0  0  0  0  0  0  0  0  0
   -0.0765   -1.0713    0.0000 C   0  0  0  0  0  0  0  0  0  0  0  0
    0.6380   -0.6588    0.0000 C   0  0  0  0  0  0  0  0  0  0  0  0
    0.9201    0.9414    0.0000 O   0  0  0  0  0  0  0  0  0  0  0  0
    0.3898    1.5734    0.0000 C   0  0  0  0  0  0  0  0  0  0  0  0
    3.6057    0.3684    0.0000 C   0  0  0  0  0  0  0  0  0  0  0  0
    4.1360    1.0004    0.0000 C   0  0  0  0  0  0  0  0  0  0  0  0
    1.8375   -0.1576    0.0000 H   0  0  0  0  0  0  0  0  0  0  0  0
    2.5067   -1.1133    0.0000 H   0  0  0  0  0  0  0  0  0  0  0  0
    3.4624   -0.4441    0.0000 H   0  0  0  0  0  0  0  0  0  0  0  0
    3.7489    1.1808    0.0000 H   0  0  0  0  0  0  0  0  0  0  0  0
    3.0797    2.1366    0.0000 H   0  0  0  0  0  0  0  0  0  0  0  0
    2.1240    1.4674    0.0000 H   0  0  0  0  0  0  0  0  0  0  0  0
    0.2938    1.3159    0.0000 H   0  0  0  0  0  0  0  0  0  0  0  0
   -0.4468    1.3159    0.0000 H   0  0  0  0  0  0  0  0  0  0  0  0
   -1.2443    0.8554    0.0000 H   0  0  0  0  0  0  0  0  0  0  0  0
   -1.6146    0.2141    0.0000 H   0  0  0  0  0  0  0  0  0  0  0  0
   -1.6146   -0.7068    0.0000 H   0  0  0  0  0  0  0  0  0  0  0  0
   -1.2443   -1.3481    0.0000 H   0  0  0  0  0  0  0  0  0  0  0  0
   -0.4468   -1.8086    0.0000 H   0  0  0  0  0  0  0  0  0  0  0  0
    0.2938   -1.8086    0.0000 H   0  0  0  0  0  0  0  0  0  0  0  0
    1.0913   -1.3481    0.0000 H   0  0  0  0  0  0  0  0  0  0  0  0
    1.4616   -0.7068    0.0000 H   0  0  0  0  0  0  0  0  0  0  0  0
    1.1975    1.7418    0.0000 H   0  0  0  0  0  0  0  0  0  0  0  0
    0.6234    2.3646    0.0000 H   0  0  0  0  0  0  0  0  0  0  0  0
   -0.1969    2.1534    0.0000 H   0  0  0  0  0  0  0  0  0  0  0  0
    4.3534    0.0197    0.0000 H   0  0  0  0  0  0  0  0  0  0  0  0
    2.9299   -0.1048    0.0000 H   0  0  0  0  0  0  0  0  0  0  0  0
    4.5639    0.2951    0.0000 H   0  0  0  0  0  0  0  0  0  0  0  0
    4.9414    1.1789    0.0000 H   0  0  0  0  0  0  0  0  0  0  0  0
    4.2258    1.8205    0.0000 H   0  0  0  0  0  0  0  0  0  0  0  0
  1  2  1  0  0  0  0
  2  3  1  0  0  0  0
  2  4  1  0  0  0  0
  4  5  1  0  0  0  0
  5  6  1  0  0  0  0
  7  6  1  0  0  0  0
  8  7  1  0  0  0  0
  9  8  1  0  0  0  0
 10  9  1  0  0  0  0
 11 10  1  0  0  0  0
  6 12  1  0  0  0  0
 12 13  1  0  0  0  0
  2 14  1  0  0  0  0
 14 15  1  0  0  0  0
  6 11  1  0  0  0  0
  1 16  1  0  0  0  0
  1 17  1  0  0  0  0
  1 18  1  0  0  0  0
  3 19  1  0  0  0  0
  3 20  1  0  0  0  0
  3 21  1  0  0  0  0
  7 22  1  0  0  0  0
  7 23  1  0  0  0  0
  8 24  1  0  0  0  0
  8 25  1  0  0  0  0
  9 26  1  0  0  0  0
  9 27  1  0  0  0  0
 10 28  1  0  0  0  0
 10 29  1  0  0  0  0
 11 30  1  0  0  0  0
 11 31  1  0  0  0  0
 13 32  1  0  0  0  0
 13 33  1  0  0  0  0
 13 34  1  0  0  0  0
 14 35  1  0  0  0  0
 14 36  1  0  0  0  0
 15 37  1  0  0  0  0
 15 38  1  0  0  0  0
 15 39  1  0  0  0  0
M  END
>  <id_input>
5281

>  <InChIKey>
MGIDEDVBLNEGDG-UHFFFAOYSA-N

>  <substance_name>
unnamed [125768-93-6]

>  <casrn>
125768-93-6

>  <Molecular weight>
216.31716918945312

>  <guideline>
OECD Guideline 404 (Acute Dermal Irritation / Corrosion)

>  <species>
rabbit

>  <type_of_coverage>
semiocclusive

>  <max_duration(hrs)>
4.0

>  <vehicle>
unchanged (no vehicle)

>  <edema/ erythema score>
1.65

>  <max_score>
4.0

>  <reversibility>
0.0

>  <Outcome>
1

>  <StandardizerResult>
Remove Explicit Hydrogens (ID: RemoveExplicitH)
Clear Stereo (ID: ClearStereo)
Wedge Clean (ID: WedgeClean)
Mesomerize (ID: Mesomerize)
Tautomerize (ID: Tautomerize)
Add Explicit Hydrogens (ID: AddExplicitH)
Neutralize (ID: Neutralize)
Clean 2D (ID: Clean2D)


$$$$

  Mrv1812 02121911042D          

  9  9  0  0  0  0            999 V2000
    1.4289   -0.8250    0.0000 Cl  0  0  0  0  0  0  0  0  0  0  0  0
    0.7145   -0.4125    0.0000 C   0  0  0  0  0  0  0  0  0  0  0  0
    0.7145    0.4125    0.0000 N   0  0  0  0  0  0  0  0  0  0  0  0
    0.0000    0.8250    0.0000 C   0  0  0  0  0  0  0  0  0  0  0  0
    0.0000    1.6500    0.0000 Cl  0  0  0  0  0  0  0  0  0  0  0  0
   -0.7145    0.4125    0.0000 N   0  0  0  0  0  0  0  0  0  0  0  0
   -0.7145   -0.4125    0.0000 C   0  0  0  0  0  0  0  0  0  0  0  0
   -1.4289   -0.8250    0.0000 Cl  0  0  0  0  0  0  0  0  0  0  0  0
   -0.0000   -0.8250    0.0000 N   0  0  0  0  0  0  0  0  0  0  0  0
  1  2  1  0  0  0  0
  3  2  4  0  0  0  0
  4  3  4  0  0  0  0
  4  5  1  0  0  0  0
  6  4  4  0  0  0  0
  7  6  4  0  0  0  0
  7  8  1  0  0  0  0
  9  7  4  0  0  0  0
  2  9  4  0  0  0  0
M  END
>  <id_input>
5108

>  <InChIKey>
MGNCLNQXLYJVJD-UHFFFAOYSA-N

>  <substance_name>
trichloro-1,3,5-triazine

>  <casrn>
108-77-0

>  <Molecular weight>
184.41119384765625

>  <guideline>
OECD Guideline 404 (Acute Dermal Irritation / Corrosion)

>  <species>
rabbit

>  <type_of_coverage>
semiocclusive

>  <max_duration(hrs)>
4.0

>  <vehicle>
water

>  <edema/ erythema score>
2.6

>  <max_score>
4.0

>  <reversibility>
0.0

>  <Outcome>
1

>  <StandardizerResult>
Dearomatize (ID: Dearomatize)
Clear Stereo (ID: ClearStereo)
Wedge Clean (ID: WedgeClean)
Mesomerize (ID: Mesomerize)
Tautomerize (ID: Tautomerize)
Aromatize (ID: Aromatize)
Clean 2D (ID: Clean2D)


$$$$

  Mrv1812 02121911042D          

 37 37  0  0  0  0            999 V2000
   -0.4467   -1.2414    0.0000 C   0  0  0  0  0  0  0  0  0  0  0  0
    0.2678   -1.6539    0.0000 C   0  0  0  0  0  0  0  0  0  0  0  0
    0.9823   -1.2414    0.0000 C   0  0  0  0  0  0  0  0  0  0  0  0
    1.6968   -1.6539    0.0000 C   0  0  0  0  0  0  0  0  0  0  0  0
    2.4112   -1.2414    0.0000 C   0  0  0  0  0  0  0  0  0  0  0  0
    3.1257   -1.6539    0.0000 C   0  0  0  0  0  0  0  0  0  0  0  0
    3.8402   -1.2414    0.0000 C   0  0  0  0  0  0  0  0  0  0  0  0
    4.5546   -1.6539    0.0000 C   0  0  0  0  0  0  0  0  0  0  0  0
    5.2691   -1.2414    0.0000 C   0  0  0  0  0  0  0  0  0  0  0  0
    5.9836   -1.6539    0.0000 C   0  0  0  0  0  0  0  0  0  0  0  0
    6.6981   -1.2414    0.0000 C   0  0  0  0  0  0  0  0  0  0  0  0
    7.5231   -1.2414    0.0000 C   0  0  0  0  0  0  0  0  0  0  0  0
    7.1106   -0.5269    0.0000 O   0  0  0  0  0  0  0  0  0  0  0  0
   -0.0342   -0.5269    0.0000 H   0  0  0  0  0  0  0  0  0  0  0  0
   -1.1611   -0.8289    0.0000 H   0  0  0  0  0  0  0  0  0  0  0  0
   -0.8592   -1.9559    0.0000 H   0  0  0  0  0  0  0  0  0  0  0  0
   -0.1024   -2.3911    0.0000 H   0  0  0  0  0  0  0  0  0  0  0  0
    0.6381   -2.3911    0.0000 H   0  0  0  0  0  0  0  0  0  0  0  0
    1.3525   -0.5041    0.0000 H   0  0  0  0  0  0  0  0  0  0  0  0
    0.6120   -0.5041    0.0000 H   0  0  0  0  0  0  0  0  0  0  0  0
    1.3265   -2.3911    0.0000 H   0  0  0  0  0  0  0  0  0  0  0  0
    2.0670   -2.3911    0.0000 H   0  0  0  0  0  0  0  0  0  0  0  0
    2.7815   -0.5041    0.0000 H   0  0  0  0  0  0  0  0  0  0  0  0
    2.0410   -0.5041    0.0000 H   0  0  0  0  0  0  0  0  0  0  0  0
    2.7554   -2.3911    0.0000 H   0  0  0  0  0  0  0  0  0  0  0  0
    3.4960   -2.3911    0.0000 H   0  0  0  0  0  0  0  0  0  0  0  0
    4.2104   -0.5041    0.0000 H   0  0  0  0  0  0  0  0  0  0  0  0
    3.4699   -0.5041    0.0000 H   0  0  0  0  0  0  0  0  0  0  0  0
    4.1844   -2.3911    0.0000 H   0  0  0  0  0  0  0  0  0  0  0  0
    4.9249   -2.3911    0.0000 H   0  0  0  0  0  0  0  0  0  0  0  0
    5.6394   -0.5041    0.0000 H   0  0  0  0  0  0  0  0  0  0  0  0
    4.8989   -0.5041    0.0000 H   0  0  0  0  0  0  0  0  0  0  0  0
    5.6133   -2.3911    0.0000 H   0  0  0  0  0  0  0  0  0  0  0  0
    6.3538   -2.3911    0.0000 H   0  0  0  0  0  0  0  0  0  0  0  0
    6.9116   -2.0383    0.0000 H   0  0  0  0  0  0  0  0  0  0  0  0
    7.8933   -1.9786    0.0000 H   0  0  0  0  0  0  0  0  0  0  0  0
    8.3467   -1.1934    0.0000 H   0  0  0  0  0  0  0  0  0  0  0  0
  1  2  1  0  0  0  0
  2  3  1  0  0  0  0
  3  4  1  0  0  0  0
  4  5  1  0  0  0  0
  5  6  1  0  0  0  0
  6  7  1  0  0  0  0
  7  8  1  0  0  0  0
  8  9  1  0  0  0  0
  9 10  1  0  0  0  0
 10 11  1  0  0  0  0
 12 11  1  0  0  0  0
 13 12  1  0  0  0  0
 11 13  1  0  0  0  0
  1 14  1  0  0  0  0
  1 15  1  0  0  0  0
  1 16  1  0  0  0  0
  2 17  1  0  0  0  0
  2 18  1  0  0  0  0
  3 19  1  0  0  0  0
  3 20  1  0  0  0  0
  4 21  1  0  0  0  0
  4 22  1  0  0  0  0
  5 23  1  0  0  0  0
  5 24  1  0  0  0  0
  6 25  1  0  0  0  0
  6 26  1  0  0  0  0
  7 27  1  0  0  0  0
  7 28  1  0  0  0  0
  8 29  1  0  0  0  0
  8 30  1  0  0  0  0
  9 31  1  0  0  0  0
  9 32  1  0  0  0  0
 10 33  1  0  0  0  0
 10 34  1  0  0  0  0
 11 35  1  0  0  0  0
 12 36  1  0  0  0  0
 12 37  1  0  0  0  0
M  END
>  <id_input>
2439

>  <InChIKey>
MPGABYXKKCLIRW-UHFFFAOYSA-N

>  <substance_name>
2-decyloxirane

>  <casrn>
2855-19-8

>  <Molecular weight>
184.318359375

>  <guideline>
OECD Guideline 404 (Acute Dermal Irritation / Corrosion)

>  <species>
rabbit

>  <type_of_coverage>
semiocclusive

>  <vehicle>
unchanged (no vehicle)

>  <edema/ erythema score>
1.9

>  <max_score>
2.0

>  <reversibility>
0.0

>  <Outcome>
1

>  <StandardizerResult>
Remove Explicit Hydrogens (ID: RemoveExplicitH)
Clear Stereo (ID: ClearStereo)
Wedge Clean (ID: WedgeClean)
Mesomerize (ID: Mesomerize)
Tautomerize (ID: Tautomerize)
Add Explicit Hydrogens (ID: AddExplicitH)
Neutralize (ID: Neutralize)
Clean 2D (ID: Clean2D)


$$$$

  Mrv1812 02121911042D          

 14 13  0  0  0  0            999 V2000
    1.8723   -0.5055    0.0000 C   0  0  0  0  0  0  0  0  0  0  0  0
    1.4598    0.2090    0.0000 C   0  0  0  0  0  0  0  0  0  0  0  0
    0.6348    0.2090    0.0000 C   0  0  0  0  0  0  0  0  0  0  0  0
    0.2223    0.9235    0.0000 C   0  0  0  0  0  0  0  0  0  0  0  0
   -0.6027    0.9235    0.0000 Br  0  0  0  0  0  0  0  0  0  0  0  0
    1.1578   -0.9180    0.0000 H   0  0  0  0  0  0  0  0  0  0  0  0
    2.2848   -1.2199    0.0000 H   0  0  0  0  0  0  0  0  0  0  0  0
    2.5867   -0.0930    0.0000 H   0  0  0  0  0  0  0  0  0  0  0  0
    2.1490    0.6624    0.0000 H   0  0  0  0  0  0  0  0  0  0  0  0
    1.5077    1.0326    0.0000 H   0  0  0  0  0  0  0  0  0  0  0  0
   -0.0545   -0.2443    0.0000 H   0  0  0  0  0  0  0  0  0  0  0  0
    0.5868   -0.6146    0.0000 H   0  0  0  0  0  0  0  0  0  0  0  0
    0.9115    1.3768    0.0000 H   0  0  0  0  0  0  0  0  0  0  0  0
    0.2702    1.7471    0.0000 H   0  0  0  0  0  0  0  0  0  0  0  0
  1  2  1  0  0  0  0
  2  3  1  0  0  0  0
  3  4  1  0  0  0  0
  4  5  1  0  0  0  0
  1  6  1  0  0  0  0
  1  7  1  0  0  0  0
  1  8  1  0  0  0  0
  2  9  1  0  0  0  0
  2 10  1  0  0  0  0
  3 11  1  0  0  0  0
  3 12  1  0  0  0  0
  4 13  1  0  0  0  0
  4 14  1  0  0  0  0
M  END
>  <id_input>
1897

>  <InChIKey>
MPPPKRYCTPRNTB-UHFFFAOYSA-N

>  <substance_name>
1-bromobutane

>  <casrn>
109-65-9

>  <Molecular weight>
137.0182647705078

>  <guideline>
OECD Guideline 404 (Acute Dermal Irritation / Corrosion)

>  <species>
rabbit

>  <type_of_coverage>
semiocclusive

>  <max_duration(hrs)>
4.0

>  <vehicle>
unchanged (no vehicle)

>  <edema/ erythema score>
2.25

>  <max_score>
4.0

>  <reversibility>
0.0

>  <Outcome>
1

>  <StandardizerResult>
Remove Explicit Hydrogens (ID: RemoveExplicitH)
Clear Stereo (ID: ClearStereo)
Wedge Clean (ID: WedgeClean)
Mesomerize (ID: Mesomerize)
Tautomerize (ID: Tautomerize)
Add Explicit Hydrogens (ID: AddExplicitH)
Neutralize (ID: Neutralize)
Clean 2D (ID: Clean2D)


$$$$

  Mrv1812 02121911042D          

 50 49  0  0  0  0            999 V2000
   -0.2032   -0.3083    0.0000 C   0  0  0  0  0  0  0  0  0  0  0  0
    0.5112   -0.7208    0.0000 C   0  0  0  0  0  0  0  0  0  0  0  0
    1.2257   -0.3083    0.0000 C   0  0  0  0  0  0  0  0  0  0  0  0
    1.9402   -0.7208    0.0000 C   0  0  0  0  0  0  0  0  0  0  0  0
    2.6547   -0.3083    0.0000 C   0  0  0  0  0  0  0  0  0  0  0  0
    3.3691   -0.7208    0.0000 C   0  0  0  0  0  0  0  0  0  0  0  0
    4.0836   -0.3083    0.0000 C   0  0  0  0  0  0  0  0  0  0  0  0
    4.7981   -0.7208    0.0000 C   0  0  0  0  0  0  0  0  0  0  0  0
    5.5125   -0.3083    0.0000 Si  0  0  0  0  0  4  0  0  0  0  0  0
    6.2270    0.1042    0.0000 O   0  0  0  0  0  0  0  0  0  0  0  0
    6.9415   -0.3083    0.0000 C   0  0  0  0  0  0  0  0  0  0  0  0
    7.6559    0.1042    0.0000 C   0  0  0  0  0  0  0  0  0  0  0  0
    5.9250   -1.0227    0.0000 O   0  0  0  0  0  0  0  0  0  0  0  0
    6.7500   -1.0227    0.0000 C   0  0  0  0  0  0  0  0  0  0  0  0
    7.1625   -1.7372    0.0000 C   0  0  0  0  0  0  0  0  0  0  0  0
    5.1000    0.4062    0.0000 O   0  0  0  0  0  0  0  0  0  0  0  0
    5.5125    1.1207    0.0000 C   0  0  0  0  0  0  0  0  0  0  0  0
    6.3375    1.1207    0.0000 C   0  0  0  0  0  0  0  0  0  0  0  0
    0.2093    0.4062    0.0000 H   0  0  0  0  0  0  0  0  0  0  0  0
   -0.9177    0.1042    0.0000 H   0  0  0  0  0  0  0  0  0  0  0  0
   -0.6157   -1.0227    0.0000 H   0  0  0  0  0  0  0  0  0  0  0  0
    0.1410   -1.4580    0.0000 H   0  0  0  0  0  0  0  0  0  0  0  0
    0.8815   -1.4580    0.0000 H   0  0  0  0  0  0  0  0  0  0  0  0
    1.5960    0.4290    0.0000 H   0  0  0  0  0  0  0  0  0  0  0  0
    0.8554    0.4290    0.0000 H   0  0  0  0  0  0  0  0  0  0  0  0
    1.5699   -1.4580    0.0000 H   0  0  0  0  0  0  0  0  0  0  0  0
    2.3104   -1.4580    0.0000 H   0  0  0  0  0  0  0  0  0  0  0  0
    3.0249    0.4290    0.0000 H   0  0  0  0  0  0  0  0  0  0  0  0
    2.2844    0.4290    0.0000 H   0  0  0  0  0  0  0  0  0  0  0  0
    2.9989   -1.4580    0.0000 H   0  0  0  0  0  0  0  0  0  0  0  0
    3.7394   -1.4580    0.0000 H   0  0  0  0  0  0  0  0  0  0  0  0
    4.4539    0.4290    0.0000 H   0  0  0  0  0  0  0  0  0  0  0  0
    3.7133    0.4290    0.0000 H   0  0  0  0  0  0  0  0  0  0  0  0
    4.4278   -1.4580    0.0000 H   0  0  0  0  0  0  0  0  0  0  0  0
    5.1683   -1.4580    0.0000 H   0  0  0  0  0  0  0  0  0  0  0  0
    7.5960   -0.8105    0.0000 H   0  0  0  0  0  0  0  0  0  0  0  0
    6.9415    0.5167    0.0000 H   0  0  0  0  0  0  0  0  0  0  0  0
    8.3493   -0.3428    0.0000 H   0  0  0  0  0  0  0  0  0  0  0  0
    8.3835    0.4931    0.0000 H   0  0  0  0  0  0  0  0  0  0  0  0
    7.6694    0.9291    0.0000 H   0  0  0  0  0  0  0  0  0  0  0  0
    6.2478   -0.3682    0.0000 H   0  0  0  0  0  0  0  0  0  0  0  0
    6.3375   -1.7372    0.0000 H   0  0  0  0  0  0  0  0  0  0  0  0
    6.9490   -2.5341    0.0000 H   0  0  0  0  0  0  0  0  0  0  0  0
    7.8770   -2.1497    0.0000 H   0  0  0  0  0  0  0  0  0  0  0  0
    7.7459   -1.1538    0.0000 H   0  0  0  0  0  0  0  0  0  0  0  0
    5.4646    1.9443    0.0000 H   0  0  0  0  0  0  0  0  0  0  0  0
    4.8233    1.5740    0.0000 H   0  0  0  0  0  0  0  0  0  0  0  0
    6.9458    1.6781    0.0000 H   0  0  0  0  0  0  0  0  0  0  0  0
    6.3015    1.9449    0.0000 H   0  0  0  0  0  0  0  0  0  0  0  0
    6.0218    0.3585    0.0000 H   0  0  0  0  0  0  0  0  0  0  0  0
  1  2  1  0  0  0  0
  2  3  1  0  0  0  0
  3  4  1  0  0  0  0
  4  5  1  0  0  0  0
  5  6  1  0  0  0  0
  6  7  1  0  0  0  0
  7  8  1  0  0  0  0
  8  9  1  0  0  0  0
  9 10  1  0  0  0  0
 10 11  1  0  0  0  0
 11 12  1  0  0  0  0
  9 13  1  0  0  0  0
 13 14  1  0  0  0  0
 14 15  1  0  0  0  0
  9 16  1  0  0  0  0
 16 17  1  0  0  0  0
 17 18  1  0  0  0  0
  1 19  1  0  0  0  0
  1 20  1  0  0  0  0
  1 21  1  0  0  0  0
  2 22  1  0  0  0  0
  2 23  1  0  0  0  0
  3 24  1  0  0  0  0
  3 25  1  0  0  0  0
  4 26  1  0  0  0  0
  4 27  1  0  0  0  0
  5 28  1  0  0  0  0
  5 29  1  0  0  0  0
  6 30  1  0  0  0  0
  6 31  1  0  0  0  0
  7 32  1  0  0  0  0
  7 33  1  0  0  0  0
  8 34  1  0  0  0  0
  8 35  1  0  0  0  0
 11 36  1  0  0  0  0
 11 37  1  0  0  0  0
 12 38  1  0  0  0  0
 12 39  1  0  0  0  0
 12 40  1  0  0  0  0
 14 41  1  0  0  0  0
 14 42  1  0  0  0  0
 15 43  1  0  0  0  0
 15 44  1  0  0  0  0
 15 45  1  0  0  0  0
 17 46  1  0  0  0  0
 17 47  1  0  0  0  0
 18 48  1  0  0  0  0
 18 49  1  0  0  0  0
 18 50  1  0  0  0  0
M  END
>  <id_input>
5134

>  <InChIKey>
MSRJTTSHWYDFIU-UHFFFAOYSA-N

>  <substance_name>
triethoxy(octyl)silane

>  <casrn>
2943-75-1

>  <Molecular weight>
276.4875793457031

>  <guideline>
other: based on EPA TSCA Health Effects Test Guidelines.

>  <species>
rabbit

>  <type_of_coverage>
occlusive

>  <max_duration(hrs)>
4.0

>  <vehicle>
unchanged (no vehicle)

>  <edema/ erythema score>
1.5

>  <max_score>
4.0

>  <reversibility>
0.0

>  <Outcome>
1

>  <StandardizerResult>
Remove Explicit Hydrogens (ID: RemoveExplicitH)
Clear Stereo (ID: ClearStereo)
Wedge Clean (ID: WedgeClean)
Mesomerize (ID: Mesomerize)
Tautomerize (ID: Tautomerize)
Add Explicit Hydrogens (ID: AddExplicitH)
Neutralize (ID: Neutralize)
Clean 2D (ID: Clean2D)


$$$$

  Mrv1812 02121911042D          

 39 39  0  0  0  0            999 V2000
   -2.0422   -1.0629    0.0000 C   0  0  0  0  0  0  0  0  0  0  0  0
   -1.3277   -1.4754    0.0000 C   0  0  0  0  0  0  0  0  0  0  0  0
   -0.6133   -1.0629    0.0000 C   0  0  0  0  0  0  0  0  0  0  0  0
    0.1012   -1.4754    0.0000 C   0  0  0  0  0  0  0  0  0  0  0  0
    0.8157   -1.0629    0.0000 C   0  0  0  0  0  0  0  0  0  0  0  0
    1.5301   -1.4754    0.0000 C   0  0  0  0  0  0  0  0  0  0  0  0
    2.2446   -1.0629    0.0000 C   0  0  0  0  0  0  0  0  0  0  0  0
    2.9591   -1.4754    0.0000 C   0  0  0  0  0  0  0  0  0  0  0  0
    3.0453   -2.2959    0.0000 N   0  0  0  0  0  0  0  0  0  0  0  0
    3.8523   -2.4674    0.0000 C   0  0  0  0  0  0  0  0  0  0  0  0
    4.2648   -1.7529    0.0000 C   0  0  0  0  0  0  0  0  0  0  0  0
    3.7128   -1.1398    0.0000 N   0  0  0  0  0  0  0  0  0  0  0  0
    3.8843   -0.3329    0.0000 C   0  0  0  0  0  0  0  0  0  0  0  0
    4.6689   -0.0779    0.0000 C   0  0  0  0  0  0  0  0  0  0  0  0
    4.8404    0.7290    0.0000 O   0  0  0  0  0  0  0  0  0  0  0  0
   -1.6297   -0.3484    0.0000 H   0  0  0  0  0  0  0  0  0  0  0  0
   -2.7567   -0.6504    0.0000 H   0  0  0  0  0  0  0  0  0  0  0  0
   -2.4547   -1.7774    0.0000 H   0  0  0  0  0  0  0  0  0  0  0  0
   -1.6980   -2.2126    0.0000 H   0  0  0  0  0  0  0  0  0  0  0  0
   -0.9575   -2.2126    0.0000 H   0  0  0  0  0  0  0  0  0  0  0  0
   -0.2430   -0.3256    0.0000 H   0  0  0  0  0  0  0  0  0  0  0  0
   -0.9835   -0.3256    0.0000 H   0  0  0  0  0  0  0  0  0  0  0  0
   -0.2691   -2.2126    0.0000 H   0  0  0  0  0  0  0  0  0  0  0  0
    0.4715   -2.2126    0.0000 H   0  0  0  0  0  0  0  0  0  0  0  0
    1.1859   -0.3256    0.0000 H   0  0  0  0  0  0  0  0  0  0  0  0
    0.4454   -0.3256    0.0000 H   0  0  0  0  0  0  0  0  0  0  0  0
    1.1599   -2.2126    0.0000 H   0  0  0  0  0  0  0  0  0  0  0  0
    1.9004   -2.2126    0.0000 H   0  0  0  0  0  0  0  0  0  0  0  0
    2.6149   -0.3256    0.0000 H   0  0  0  0  0  0  0  0  0  0  0  0
    1.8744   -0.3256    0.0000 H   0  0  0  0  0  0  0  0  0  0  0  0
    3.7947   -3.2904    0.0000 H   0  0  0  0  0  0  0  0  0  0  0  0
    4.5024   -2.9753    0.0000 H   0  0  0  0  0  0  0  0  0  0  0  0
    5.0297   -2.0620    0.0000 H   0  0  0  0  0  0  0  0  0  0  0  0
    4.9488   -1.2916    0.0000 H   0  0  0  0  0  0  0  0  0  0  0  0
    3.5842    0.4356    0.0000 H   0  0  0  0  0  0  0  0  0  0  0  0
    3.0887   -0.1147    0.0000 H   0  0  0  0  0  0  0  0  0  0  0  0
    4.9690   -0.8464    0.0000 H   0  0  0  0  0  0  0  0  0  0  0  0
    5.4645   -0.2961    0.0000 H   0  0  0  0  0  0  0  0  0  0  0  0
    5.6251    0.9840    0.0000 H   0  0  0  0  0  0  0  0  0  0  0  0
  1  2  1  0  0  0  0
  2  3  1  0  0  0  0
  3  4  1  0  0  0  0
  4  5  1  0  0  0  0
  5  6  1  0  0  0  0
  6  7  1  0  0  0  0
  7  8  1  0  0  0  0
  9  8  2  0  0  0  0
 10  9  1  0  0  0  0
 11 10  1  0  0  0  0
 12 11  1  0  0  0  0
 12 13  1  0  0  0  0
 13 14  1  0  0  0  0
 14 15  1  0  0  0  0
  8 12  1  0  0  0  0
  1 16  1  0  0  0  0
  1 17  1  0  0  0  0
  1 18  1  0  0  0  0
  2 19  1  0  0  0  0
  2 20  1  0  0  0  0
  3 21  1  0  0  0  0
  3 22  1  0  0  0  0
  4 23  1  0  0  0  0
  4 24  1  0  0  0  0
  5 25  1  0  0  0  0
  5 26  1  0  0  0  0
  6 27  1  0  0  0  0
  6 28  1  0  0  0  0
  7 29  1  0  0  0  0
  7 30  1  0  0  0  0
 10 31  1  0  0  0  0
 10 32  1  0  0  0  0
 11 33  1  0  0  0  0
 11 34  1  0  0  0  0
 13 35  1  0  0  0  0
 13 36  1  0  0  0  0
 14 37  1  0  0  0  0
 14 38  1  0  0  0  0
 15 39  1  0  0  0  0
M  END
>  <id_input>
2179

>  <InChIKey>
MTEKQDXWVXZMDN-UHFFFAOYSA-N

>  <substance_name>
2-(2-heptyl-4,5-dihydro-1H-imidazol-1-yl)ethan-1-ol

>  <casrn>
36060-61-4

>  <Molecular weight>
212.33175659179688

>  <guideline>
OECD Guideline 404 (Acute Dermal Irritation / Corrosion)

>  <species>
rabbit

>  <type_of_coverage>
occlusive

>  <max_duration(hrs)>
4.0

>  <vehicle>
unchanged (no vehicle)

>  <edema/ erythema score>
1.5

>  <reversibility>
0.0

>  <Outcome>
1

>  <StandardizerResult>
Remove Explicit Hydrogens (ID: RemoveExplicitH)
Clear Stereo (ID: ClearStereo)
Wedge Clean (ID: WedgeClean)
Mesomerize (ID: Mesomerize)
Tautomerize (ID: Tautomerize)
Add Explicit Hydrogens (ID: AddExplicitH)
Neutralize (ID: Neutralize)
Clean 2D (ID: Clean2D)


$$$$

  Mrv1812 02121911042D          

 12 12  0  0  0  0            999 V2000
    1.4289    0.8250    0.0000 Cl  0  0  0  0  0  0  0  0  0  0  0  0
    0.7145    0.4125    0.0000 C   0  0  0  0  0  0  0  0  0  0  0  0
   -0.0000    0.8250    0.0000 C   0  0  0  0  0  0  0  0  0  0  0  0
   -0.7145    0.4125    0.0000 C   0  0  0  0  0  0  0  0  0  0  0  0
   -0.7145   -0.4125    0.0000 C   0  0  0  0  0  0  0  0  0  0  0  0
   -0.0000   -0.8250    0.0000 C   0  0  0  0  0  0  0  0  0  0  0  0
    0.7145   -0.4125    0.0000 C   0  0  0  0  0  0  0  0  0  0  0  0
   -0.0000    1.6500    0.0000 H   0  0  0  0  0  0  0  0  0  0  0  0
   -1.4289    0.8250    0.0000 H   0  0  0  0  0  0  0  0  0  0  0  0
   -1.4289   -0.8250    0.0000 H   0  0  0  0  0  0  0  0  0  0  0  0
   -0.0000   -1.6500    0.0000 H   0  0  0  0  0  0  0  0  0  0  0  0
    1.4289   -0.8250    0.0000 H   0  0  0  0  0  0  0  0  0  0  0  0
  1  2  1  0  0  0  0
  3  2  4  0  0  0  0
  4  3  4  0  0  0  0
  5  4  4  0  0  0  0
  6  5  4  0  0  0  0
  7  6  4  0  0  0  0
  2  7  4  0  0  0  0
  3  8  1  0  0  0  0
  4  9  1  0  0  0  0
  5 10  1  0  0  0  0
  6 11  1  0  0  0  0
  7 12  1  0  0  0  0
M  END
>  <id_input>
4004

>  <InChIKey>
MVPPADPHJFYWMZ-UHFFFAOYSA-N

>  <substance_name>
chlorobenzene

>  <casrn>
108-90-7

>  <Molecular weight>
112.55690002441406

>  <guideline>
OECD Guideline 404 (Acute Dermal Irritation / Corrosion)

>  <species>
rabbit

>  <type_of_coverage>
semiocclusive

>  <max_duration(hrs)>
4.0

>  <vehicle>
unchanged (no vehicle)

>  <edema/ erythema score>
2.7

>  <max_score>
4.0

>  <reversibility>
0.0

>  <Outcome>
1

>  <StandardizerResult>
Remove Explicit Hydrogens (ID: RemoveExplicitH)
Dearomatize (ID: Dearomatize)
Clear Stereo (ID: ClearStereo)
Wedge Clean (ID: WedgeClean)
Mesomerize (ID: Mesomerize)
Tautomerize (ID: Tautomerize)
Aromatize (ID: Aromatize)
Add Explicit Hydrogens (ID: AddExplicitH)
Neutralize (ID: Neutralize)
Clean 2D (ID: Clean2D)


$$$$

  Mrv1812 02121911042D          

 30 31  0  0  0  0            999 V2000
    4.4074   -2.3933    0.0000 O   0  0  0  0  0  0  0  0  0  0  0  0
    3.5869   -2.4795    0.0000 N   0  0  0  0  0  0  0  0  0  0  0  0
    3.2513   -3.2332    0.0000 O   0  0  0  0  0  0  0  0  0  0  0  0
    3.1020   -1.8121    0.0000 C   0  0  0  0  0  0  0  0  0  0  0  0
    3.3569   -1.0275    0.0000 N   0  0  0  0  0  0  0  0  0  0  0  0
    2.6895   -0.5426    0.0000 C   0  0  0  0  0  0  0  0  0  0  0  0
    2.0220   -1.0275    0.0000 N   0  0  0  0  0  0  0  0  0  0  0  0
    1.2374   -0.7725    0.0000 C   0  0  0  0  0  0  0  0  0  0  0  0
    0.6243   -1.3246    0.0000 C   0  0  0  0  0  0  0  0  0  0  0  0
    0.7958   -2.1315    0.0000 O   0  0  0  0  0  0  0  0  0  0  0  0
   -0.1603   -1.0696    0.0000 N   0  0  0  0  0  0  0  0  0  0  0  0
   -0.7734   -1.6217    0.0000 C   0  0  0  0  0  0  0  0  0  0  0  0
   -1.5580   -1.3667    0.0000 C   0  0  0  0  0  0  0  0  0  0  0  0
   -2.1711   -1.9188    0.0000 C   0  0  0  0  0  0  0  0  0  0  0  0
   -1.9996   -2.7257    0.0000 C   0  0  0  0  0  0  0  0  0  0  0  0
   -1.2150   -2.9807    0.0000 C   0  0  0  0  0  0  0  0  0  0  0  0
   -0.6019   -2.4286    0.0000 C   0  0  0  0  0  0  0  0  0  0  0  0
    0.1827   -2.6836    0.0000 Cl  0  0  0  0  0  0  0  0  0  0  0  0
   -2.9557   -1.6638    0.0000 C   0  0  0  0  0  0  0  0  0  0  0  0
   -3.7404   -1.4089    0.0000 F   0  0  0  0  0  0  0  0  0  0  0  0
   -2.7008   -0.8792    0.0000 F   0  0  0  0  0  0  0  0  0  0  0  0
   -3.2107   -2.4484    0.0000 F   0  0  0  0  0  0  0  0  0  0  0  0
    2.2770   -1.8121    0.0000 N   0  0  0  0  0  0  0  0  0  0  0  0
    2.6895    0.2824    0.0000 H   0  0  0  0  0  0  0  0  0  0  0  0
    1.4463    0.0256    0.0000 H   0  0  0  0  0  0  0  0  0  0  0  0
    0.7220   -0.1284    0.0000 H   0  0  0  0  0  0  0  0  0  0  0  0
   -0.3318   -0.2627    0.0000 H   0  0  0  0  0  0  0  0  0  0  0  0
   -1.7296   -0.5598    0.0000 H   0  0  0  0  0  0  0  0  0  0  0  0
   -2.6127   -3.2778    0.0000 H   0  0  0  0  0  0  0  0  0  0  0  0
   -1.0434   -3.7876    0.0000 H   0  0  0  0  0  0  0  0  0  0  0  0
  1  2  2  0  0  0  0
  2  3  2  0  0  0  0
  2  4  1  0  0  0  0
  5  4  4  0  0  0  0
  6  5  4  0  0  0  0
  7  6  4  0  0  0  0
  7  8  1  0  0  0  0
  8  9  1  0  0  0  0
  9 10  2  0  0  0  0
  9 11  1  0  0  0  0
 11 12  1  0  0  0  0
 13 12  4  0  0  0  0
 14 13  4  0  0  0  0
 15 14  4  0  0  0  0
 16 15  4  0  0  0  0
 17 16  4  0  0  0  0
 17 18  1  0  0  0  0
 14 19  1  0  0  0  0
 19 20  1  0  0  0  0
 19 21  1  0  0  0  0
 19 22  1  0  0  0  0
 23  7  4  0  0  0  0
  4 23  4  0  0  0  0
 12 17  4  0  0  0  0
  6 24  1  0  0  0  0
  8 25  1  0  0  0  0
  8 26  1  0  0  0  0
 11 27  1  0  0  0  0
 13 28  1  0  0  0  0
 15 29  1  0  0  0  0
 16 30  1  0  0  0  0
M  END
>  <id_input>
2150

>  <InChIKey>
MXAJYGSMFXDTIF-UHFFFAOYSA-N

>  <substance_name>
2,6-di-tert-butyl-4-nonylphenol

>  <casrn>
4306-88-1

>  <Molecular weight>
349.6531982421875

>  <guideline>
OECD Guideline 404 (Acute Dermal Irritation / Corrosion)

>  <species>
rabbit

>  <type_of_coverage>
semiocclusive

>  <max_duration(hrs)>
4.0

>  <vehicle>
unchanged (no vehicle)

>  <edema/ erythema score>
1.8

>  <max_score>
4.0

>  <reversibility>
0.0

>  <Outcome>
1

>  <StandardizerResult>
Remove Explicit Hydrogens (ID: RemoveExplicitH)
Dearomatize (ID: Dearomatize)
Clear Stereo (ID: ClearStereo)
Wedge Clean (ID: WedgeClean)
Mesomerize (ID: Mesomerize)
Tautomerize (ID: Tautomerize)
Aromatize (ID: Aromatize)
Add Explicit Hydrogens (ID: AddExplicitH)
Neutralize (ID: Neutralize)
Clean 2D (ID: Clean2D)


$$$$

  Mrv1812 02121911042D          

 17 17  0  0  0  0            999 V2000
    2.2405    0.8753    0.0000 F   0  0  0  0  0  0  0  0  0  0  0  0
    1.5260    0.4628    0.0000 C   0  0  0  0  0  0  0  0  0  0  0  0
    1.1135    1.1773    0.0000 F   0  0  0  0  0  0  0  0  0  0  0  0
    1.9385   -0.2517    0.0000 F   0  0  0  0  0  0  0  0  0  0  0  0
    0.8115    0.0503    0.0000 C   0  0  0  0  0  0  0  0  0  0  0  0
    0.0971    0.4628    0.0000 C   0  0  0  0  0  0  0  0  0  0  0  0
   -0.6174    0.0503    0.0000 C   0  0  0  0  0  0  0  0  0  0  0  0
   -0.6174   -0.7747    0.0000 C   0  0  0  0  0  0  0  0  0  0  0  0
    0.0971   -1.1872    0.0000 C   0  0  0  0  0  0  0  0  0  0  0  0
    0.8115   -0.7747    0.0000 C   0  0  0  0  0  0  0  0  0  0  0  0
    1.5260   -1.1872    0.0000 Cl  0  0  0  0  0  0  0  0  0  0  0  0
   -1.3319    0.4628    0.0000 N   0  0  0  0  0  0  0  0  0  0  0  0
   -2.0463    0.0503    0.0000 C   0  0  0  0  0  0  0  0  0  0  0  0
   -2.7608   -0.3622    0.0000 O   0  0  0  0  0  0  0  0  0  0  0  0
    0.0971    1.2878    0.0000 H   0  0  0  0  0  0  0  0  0  0  0  0
   -1.3319   -1.1872    0.0000 H   0  0  0  0  0  0  0  0  0  0  0  0
    0.0971   -2.0122    0.0000 H   0  0  0  0  0  0  0  0  0  0  0  0
  1  2  1  0  0  0  0
  2  3  1  0  0  0  0
  2  4  1  0  0  0  0
  2  5  1  0  0  0  0
  6  5  4  0  0  0  0
  7  6  4  0  0  0  0
  8  7  4  0  0  0  0
  9  8  4  0  0  0  0
 10  9  4  0  0  0  0
 10 11  1  0  0  0  0
 12  7  1  4  0  0  0
 12 13  2  0  0  0  0
 13 14  2  0  0  0  0
  5 10  4  0  0  0  0
  6 15  1  0  0  0  0
  8 16  1  0  0  0  0
  9 17  1  0  0  0  0
M  END
>  <id_input>
170

>  <InChIKey>
NBJZEUQTGLSUOB-UHFFFAOYSA-N

>  <substance_name>
-

>  <casrn>
327-78-6

>  <Molecular weight>
221.56373596191406

>  <guideline>
OECD Guideline 404 (Acute Dermal Irritation / Corrosion)

>  <species>
rabbit

>  <type_of_coverage>
semiocclusive

>  <max_duration(hrs)>
4.0

>  <vehicle>
other: moistened with water

>  <edema/ erythema score>
2.0

>  <max_score>
4.0

>  <reversibility>
0.0

>  <Outcome>
1

>  <StandardizerResult>
Remove Explicit Hydrogens (ID: RemoveExplicitH)
Dearomatize (ID: Dearomatize)
Clear Stereo (ID: ClearStereo)
Wedge Clean (ID: WedgeClean)
Mesomerize (ID: Mesomerize)
Tautomerize (ID: Tautomerize)
Aromatize (ID: Aromatize)
Add Explicit Hydrogens (ID: AddExplicitH)
Neutralize (ID: Neutralize)
Clean 2D (ID: Clean2D)


$$$$

  Mrv1812 02121911042D          

 31 31  0  0  0  0            999 V2000
    3.9533    1.0642    0.0000 C   0  0  0  0  0  0  0  0  0  0  0  0
    3.2389    0.6517    0.0000 C   0  0  0  0  0  0  0  0  0  0  0  0
    3.2389   -0.1733    0.0000 O   0  0  0  0  0  0  0  0  0  0  0  0
    2.5244    1.0642    0.0000 C   0  0  0  0  0  0  0  0  0  0  0  0
    1.8099    0.6517    0.0000 C   0  0  0  0  0  0  0  0  0  0  0  0
    1.3974    1.3661    0.0000 C   0  0  0  0  0  0  0  0  0  0  0  0
    2.2224   -0.0628    0.0000 C   0  0  0  0  0  0  0  0  0  0  0  0
    1.0954    0.2392    0.0000 C   0  0  0  0  0  0  0  0  0  0  0  0
    0.3810    0.6517    0.0000 C   0  0  0  0  0  0  0  0  0  0  0  0
   -0.3335    0.2392    0.0000 C   0  0  0  0  0  0  0  0  0  0  0  0
   -0.3335   -0.5858    0.0000 C   0  0  0  0  0  0  0  0  0  0  0  0
    0.3810   -0.9983    0.0000 C   0  0  0  0  0  0  0  0  0  0  0  0
    1.0954   -0.5858    0.0000 C   0  0  0  0  0  0  0  0  0  0  0  0
    4.3658    0.3497    0.0000 H   0  0  0  0  0  0  0  0  0  0  0  0
    4.6678    1.4767    0.0000 H   0  0  0  0  0  0  0  0  0  0  0  0
    3.5408    1.7786    0.0000 H   0  0  0  0  0  0  0  0  0  0  0  0
    3.9533    0.2392    0.0000 H   0  0  0  0  0  0  0  0  0  0  0  0
    2.8264   -0.8878    0.0000 H   0  0  0  0  0  0  0  0  0  0  0  0
    2.8946    1.8014    0.0000 H   0  0  0  0  0  0  0  0  0  0  0  0
    2.1541    1.8014    0.0000 H   0  0  0  0  0  0  0  0  0  0  0  0
    1.2907    2.1842    0.0000 H   0  0  0  0  0  0  0  0  0  0  0  0
    0.6007    1.5803    0.0000 H   0  0  0  0  0  0  0  0  0  0  0  0
    0.8949    0.7118    0.0000 H   0  0  0  0  0  0  0  0  0  0  0  0
    1.5079   -0.4753    0.0000 H   0  0  0  0  0  0  0  0  0  0  0  0
    2.6349   -0.7773    0.0000 H   0  0  0  0  0  0  0  0  0  0  0  0
    2.9369    0.3497    0.0000 H   0  0  0  0  0  0  0  0  0  0  0  0
   -0.2809    1.1442    0.0000 H   0  0  0  0  0  0  0  0  0  0  0  0
   -1.1581    0.2631    0.0000 H   0  0  0  0  0  0  0  0  0  0  0  0
   -1.0480   -0.9983    0.0000 H   0  0  0  0  0  0  0  0  0  0  0  0
    0.3810   -1.8233    0.0000 H   0  0  0  0  0  0  0  0  0  0  0  0
    1.4112   -1.3480    0.0000 H   0  0  0  0  0  0  0  0  0  0  0  0
  1  2  1  0  0  0  0
  2  3  1  0  0  0  0
  2  4  1  0  0  0  0
  4  5  1  0  0  0  0
  5  6  1  0  0  0  0
  5  7  1  0  0  0  0
  5  8  1  0  0  0  0
  9  8  4  0  0  0  0
 10  9  4  0  0  0  0
 11 10  4  0  0  0  0
 12 11  4  0  0  0  0
 13 12  4  0  0  0  0
  8 13  4  0  0  0  0
  1 14  1  0  0  0  0
  1 15  1  0  0  0  0
  1 16  1  0  0  0  0
  2 17  1  0  0  0  0
  3 18  1  0  0  0  0
  4 19  1  0  0  0  0
  4 20  1  0  0  0  0
  6 21  1  0  0  0  0
  6 22  1  0  0  0  0
  6 23  1  0  0  0  0
  7 24  1  0  0  0  0
  7 25  1  0  0  0  0
  7 26  1  0  0  0  0
  9 27  1  0  0  0  0
 10 28  1  0  0  0  0
 11 29  1  0  0  0  0
 12 30  1  0  0  0  0
 13 31  1  0  0  0  0
M  END
>  <id_input>
2918

>  <InChIKey>
NCYQVRNLBAYSLE-UHFFFAOYSA-N

>  <substance_name>
4-methyl-4-phenylpentan-2-ol

>  <casrn>
2035-93-0

>  <Molecular weight>
178.27072143554688

>  <guideline>
OECD Guideline 404 (Acute Dermal Irritation / Corrosion)

>  <species>
rabbit

>  <type_of_coverage>
semiocclusive

>  <max_duration(hrs)>
4.0

>  <vehicle>
unchanged (no vehicle)

>  <edema/ erythema score>
1.66666666666666

>  <max_score>
1.0

>  <reversibility>
0.0

>  <Outcome>
1

>  <StandardizerResult>
Remove Explicit Hydrogens (ID: RemoveExplicitH)
Dearomatize (ID: Dearomatize)
Clear Stereo (ID: ClearStereo)
Wedge Clean (ID: WedgeClean)
Mesomerize (ID: Mesomerize)
Tautomerize (ID: Tautomerize)
Aromatize (ID: Aromatize)
Add Explicit Hydrogens (ID: AddExplicitH)
Neutralize (ID: Neutralize)
Clean 2D (ID: Clean2D)


$$$$

  Mrv1812 02121911042D          

 29 28  0  0  0  0            999 V2000
   -1.6015   -3.0012    0.0000 F   0  0  0  0  0  0  0  0  0  0  0  0
   -1.6015   -2.1762    0.0000 C   0  0  0  0  0  0  0  0  0  0  0  0
   -0.7765   -2.1762    0.0000 F   0  0  0  0  0  0  0  0  0  0  0  0
   -2.4265   -2.1762    0.0000 F   0  0  0  0  0  0  0  0  0  0  0  0
   -1.6015   -1.3512    0.0000 C   0  0  0  0  0  0  0  0  0  0  0  0
   -0.7765   -1.3512    0.0000 F   0  0  0  0  0  0  0  0  0  0  0  0
   -2.4265   -1.3512    0.0000 F   0  0  0  0  0  0  0  0  0  0  0  0
   -1.6015   -0.5262    0.0000 C   0  0  0  0  0  0  0  0  0  0  0  0
   -0.7765   -0.5262    0.0000 F   0  0  0  0  0  0  0  0  0  0  0  0
   -2.4265   -0.5262    0.0000 F   0  0  0  0  0  0  0  0  0  0  0  0
   -1.6015    0.2988    0.0000 C   0  0  0  0  0  0  0  0  0  0  0  0
   -0.7765    0.2988    0.0000 F   0  0  0  0  0  0  0  0  0  0  0  0
   -2.4265    0.2988    0.0000 F   0  0  0  0  0  0  0  0  0  0  0  0
   -1.6015    1.1238    0.0000 C   0  0  0  0  0  0  0  0  0  0  0  0
   -0.7765    1.1238    0.0000 F   0  0  0  0  0  0  0  0  0  0  0  0
   -2.4265    1.1238    0.0000 F   0  0  0  0  0  0  0  0  0  0  0  0
   -1.6015    1.9488    0.0000 C   0  0  0  0  0  0  0  0  0  0  0  0
   -0.7765    1.9488    0.0000 F   0  0  0  0  0  0  0  0  0  0  0  0
   -2.4265    1.9488    0.0000 F   0  0  0  0  0  0  0  0  0  0  0  0
   -1.6015    2.7738    0.0000 C   0  0  0  0  0  0  0  0  0  0  0  0
   -0.8870    3.1863    0.0000 C   0  0  0  0  0  0  0  0  0  0  0  0
   -0.8870    4.0113    0.0000 S   0  0  0  0  0  0  0  0  0  0  0  0
   -0.8870    4.8363    0.0000 Cl  0  0  0  0  0  0  0  0  0  0  0  0
   -0.0620    4.0113    0.0000 O   0  0  0  0  0  0  0  0  0  0  0  0
   -1.7120    4.0113    0.0000 O   0  0  0  0  0  0  0  0  0  0  0  0
   -2.0548    3.4631    0.0000 H   0  0  0  0  0  0  0  0  0  0  0  0
   -2.4251    2.8218    0.0000 H   0  0  0  0  0  0  0  0  0  0  0  0
   -0.4337    2.4970    0.0000 H   0  0  0  0  0  0  0  0  0  0  0  0
   -0.0634    3.1383    0.0000 H   0  0  0  0  0  0  0  0  0  0  0  0
  1  2  1  0  0  0  0
  2  3  1  0  0  0  0
  2  4  1  0  0  0  0
  2  5  1  0  0  0  0
  5  6  1  0  0  0  0
  5  7  1  0  0  0  0
  5  8  1  0  0  0  0
  8  9  1  0  0  0  0
  8 10  1  0  0  0  0
  8 11  1  0  0  0  0
 11 12  1  0  0  0  0
 11 13  1  0  0  0  0
 11 14  1  0  0  0  0
 14 15  1  0  0  0  0
 14 16  1  0  0  0  0
 14 17  1  0  0  0  0
 17 18  1  0  0  0  0
 17 19  1  0  0  0  0
 17 20  1  0  0  0  0
 20 21  1  0  0  0  0
 21 22  1  0  0  0  0
 22 23  1  0  0  0  0
 22 24  2  0  0  0  0
 22 25  2  0  0  0  0
 20 26  1  0  0  0  0
 20 27  1  0  0  0  0
 21 28  1  0  0  0  0
 21 29  1  0  0  0  0
M  END
>  <id_input>
2642

>  <InChIKey>
NDBZVZPOTNLWLU-UHFFFAOYSA-N

>  <substance_name>
3,3,4,4,5,5,6,6,7,7,8,8,8-tridecafluorooctane-1-sulfonyl chloride

>  <casrn>
27619-89-2

>  <Molecular weight>
446.6134033203125

>  <guideline>
OECD Guideline 404 (Acute Dermal Irritation / Corrosion)

>  <species>
rabbit

>  <type_of_coverage>
semiocclusive

>  <max_duration(hrs)>
4.0

>  <vehicle>
water

>  <edema/ erythema score>
2.0

>  <max_score>
4.0

>  <reversibility>
0.0

>  <Outcome>
1

>  <StandardizerResult>
Remove Explicit Hydrogens (ID: RemoveExplicitH)
Clear Stereo (ID: ClearStereo)
Wedge Clean (ID: WedgeClean)
Mesomerize (ID: Mesomerize)
Tautomerize (ID: Tautomerize)
Add Explicit Hydrogens (ID: AddExplicitH)
Neutralize (ID: Neutralize)
Clean 2D (ID: Clean2D)


$$$$

  Mrv1812 02121911042D          

 34 34  0  0  0  0            999 V2000
    0.8868    2.2310    0.0000 C   0  0  0  0  0  0  0  0  0  0  0  0
    0.6046    1.4558    0.0000 C   0  0  0  0  0  0  0  0  0  0  0  0
    1.4171    1.3125    0.0000 C   0  0  0  0  0  0  0  0  0  0  0  0
   -0.1099    1.8683    0.0000 C   0  0  0  0  0  0  0  0  0  0  0  0
   -0.8243    1.4558    0.0000 C   0  0  0  0  0  0  0  0  0  0  0  0
   -0.8243    0.6308    0.0000 C   0  0  0  0  0  0  0  0  0  0  0  0
   -0.1099    0.2183    0.0000 C   0  0  0  0  0  0  0  0  0  0  0  0
   -0.6402   -0.4137    0.0000 C   0  0  0  0  0  0  0  0  0  0  0  0
    0.4204   -0.4137    0.0000 C   0  0  0  0  0  0  0  0  0  0  0  0
    0.1383   -1.1889    0.0000 N   0  0  0  0  0  0  0  0  0  0  0  0
    0.6686   -1.8209    0.0000 C   0  0  0  0  0  0  0  0  0  0  0  0
    1.1989   -2.4529    0.0000 O   0  0  0  0  0  0  0  0  0  0  0  0
    0.6046    0.6308    0.0000 C   0  0  0  0  0  0  0  0  0  0  0  0
   -1.5388    1.8683    0.0000 N   0  0  0  0  0  0  0  0  0  0  0  0
   -2.2533    1.4558    0.0000 C   0  0  0  0  0  0  0  0  0  0  0  0
   -2.9677    1.0433    0.0000 O   0  0  0  0  0  0  0  0  0  0  0  0
    1.6620    1.9489    0.0000 H   0  0  0  0  0  0  0  0  0  0  0  0
    1.1690    3.0063    0.0000 H   0  0  0  0  0  0  0  0  0  0  0  0
    0.1115    2.5132    0.0000 H   0  0  0  0  0  0  0  0  0  0  0  0
    0.9408    0.6389    0.0000 H   0  0  0  0  0  0  0  0  0  0  0  0
    1.8230    0.5943    0.0000 H   0  0  0  0  0  0  0  0  0  0  0  0
    2.2399    1.3731    0.0000 H   0  0  0  0  0  0  0  0  0  0  0  0
   -0.7467    2.3928    0.0000 H   0  0  0  0  0  0  0  0  0  0  0  0
   -0.1099    1.0433    0.0000 H   0  0  0  0  0  0  0  0  0  0  0  0
   -1.5388    1.0433    0.0000 H   0  0  0  0  0  0  0  0  0  0  0  0
   -1.4563    0.1005    0.0000 H   0  0  0  0  0  0  0  0  0  0  0  0
   -0.9676   -0.1817    0.0000 H   0  0  0  0  0  0  0  0  0  0  0  0
   -1.3294   -0.8671    0.0000 H   0  0  0  0  0  0  0  0  0  0  0  0
   -0.5126   -1.2288    0.0000 H   0  0  0  0  0  0  0  0  0  0  0  0
    0.1546   -0.6349    0.0000 H   0  0  0  0  0  0  0  0  0  0  0  0
    1.2108   -0.6503    0.0000 H   0  0  0  0  0  0  0  0  0  0  0  0
    1.0822    0.0790    0.0000 H   0  0  0  0  0  0  0  0  0  0  0  0
    0.4676   -0.1827    0.0000 H   0  0  0  0  0  0  0  0  0  0  0  0
    1.1809    1.2212    0.0000 H   0  0  0  0  0  0  0  0  0  0  0  0
  1  2  1  0  0  0  0
  2  3  1  0  0  0  0
  4  2  1  0  0  0  0
  5  4  1  0  0  0  0
  6  5  1  0  0  0  0
  7  6  1  0  0  0  0
  7  8  1  0  0  0  0
  7  9  1  0  0  0  0
 10  9  1  4  0  0  0
 10 11  2  0  0  0  0
 11 12  2  0  0  0  0
 13  7  1  0  0  0  0
 14  5  1  4  0  0  0
 14 15  2  0  0  0  0
 15 16  2  0  0  0  0
  2 13  1  0  0  0  0
  1 17  1  0  0  0  0
  1 18  1  0  0  0  0
  1 19  1  0  0  0  0
  3 20  1  0  0  0  0
  3 21  1  0  0  0  0
  3 22  1  0  0  0  0
  4 23  1  0  0  0  0
  4 24  1  0  0  0  0
  5 25  1  0  0  0  0
  6 26  1  0  0  0  0
  6 27  1  0  0  0  0
  8 28  1  0  0  0  0
  8 29  1  0  0  0  0
  8 30  1  0  0  0  0
  9 31  1  0  0  0  0
  9 32  1  0  0  0  0
 13 33  1  0  0  0  0
 13 34  1  0  0  0  0
M  END
>  <id_input>
2968

>  <InChIKey>
NIMLQBUJDJZYEJ-UHFFFAOYSA-N

>  <substance_name>
5-isocyanato-1-(isocyanatomethyl)-1,3,3-trimethylcyclohexane

>  <casrn>
4098-71-9

>  <Molecular weight>
222.2835235595703

>  <guideline>
OECD Guideline 404 (Acute Dermal Irritation / Corrosion)

>  <species>
rabbit

>  <type_of_coverage>
semiocclusive

>  <max_duration(hrs)>
4.0

>  <vehicle>
unchanged (no vehicle)

>  <edema/ erythema score>
2.7

>  <max_score>
4.0

>  <reversibility>
1.0

>  <Outcome>
1

>  <StandardizerResult>
Remove Explicit Hydrogens (ID: RemoveExplicitH)
Clear Stereo (ID: ClearStereo)
Wedge Clean (ID: WedgeClean)
Mesomerize (ID: Mesomerize)
Tautomerize (ID: Tautomerize)
Add Explicit Hydrogens (ID: AddExplicitH)
Neutralize (ID: Neutralize)
Clean 2D (ID: Clean2D)


$$$$

  Mrv1812 02121911042D          

  9  8  0  0  0  0            999 V2000
    2.1443   -0.2259    0.0000 O   0  0  0  0  0  0  0  0  0  0  0  0
    1.3193   -0.2259    0.0000 C   0  0  0  0  0  0  0  0  0  0  0  0
    0.9068   -0.9403    0.0000 O   0  0  0  0  0  0  0  0  0  0  0  0
    0.9068    0.4886    0.0000 C   0  0  0  0  0  0  0  0  0  0  0  0
    0.0818    0.4886    0.0000 C   0  0  0  0  0  0  0  0  0  0  0  0
    2.5568   -0.9403    0.0000 H   0  0  0  0  0  0  0  0  0  0  0  0
    1.3193    1.2031    0.0000 H   0  0  0  0  0  0  0  0  0  0  0  0
   -0.3307    1.2031    0.0000 H   0  0  0  0  0  0  0  0  0  0  0  0
   -0.3307   -0.2259    0.0000 H   0  0  0  0  0  0  0  0  0  0  0  0
  1  2  1  0  0  0  0
  2  3  2  0  0  0  0
  2  4  1  0  0  0  0
  4  5  2  0  0  0  0
  1  6  1  0  0  0  0
  4  7  1  0  0  0  0
  5  8  1  0  0  0  0
  5  9  1  0  0  0  0
M  END
>  <id_input>
4839

>  <InChIKey>
NIXOWILDQLNWCW-UHFFFAOYSA-N

>  <substance_name>
prop-2-enoic acid

>  <casrn>
79-10-7

>  <Molecular weight>
72.06266021728516

>  <guideline>
OECD Guideline 404 (Acute Dermal Irritation / Corrosion)

>  <species>
rabbit

>  <type_of_coverage>
semiocclusive

>  <max_duration(hrs)>
0.05

>  <vehicle>
unchanged (no vehicle)

>  <edema/ erythema score>
2.9

>  <max_score>
4.0

>  <reversibility>
1.0

>  <Outcome>
1

>  <StandardizerResult>
Remove Explicit Hydrogens (ID: RemoveExplicitH)
Clear Stereo (ID: ClearStereo)
Wedge Clean (ID: WedgeClean)
Mesomerize (ID: Mesomerize)
Tautomerize (ID: Tautomerize)
Add Explicit Hydrogens (ID: AddExplicitH)
Neutralize (ID: Neutralize)
Clean 2D (ID: Clean2D)


$$$$

  Mrv1812 02121911042D          

 49 49  0  0  0  0            999 V2000
   -1.5239    1.7537    0.0000 C   0  0  0  0  0  0  0  0  0  0  0  0
   -0.8094    1.3412    0.0000 C   0  0  0  0  0  0  0  0  0  0  0  0
   -0.0950    1.7537    0.0000 C   0  0  0  0  0  0  0  0  0  0  0  0
    0.6195    1.3412    0.0000 C   0  0  0  0  0  0  0  0  0  0  0  0
    1.3340    1.7537    0.0000 C   0  0  0  0  0  0  0  0  0  0  0  0
    2.0485    1.3412    0.0000 C   0  0  0  0  0  0  0  0  0  0  0  0
    2.7629    1.7537    0.0000 C   0  0  0  0  0  0  0  0  0  0  0  0
    3.4774    1.3412    0.0000 C   0  0  0  0  0  0  0  0  0  0  0  0
    4.1919    1.7537    0.0000 C   0  0  0  0  0  0  0  0  0  0  0  0
    4.9063    1.3412    0.0000 C   0  0  0  0  0  0  0  0  0  0  0  0
    5.6208    1.7537    0.0000 C   0  0  0  0  0  0  0  0  0  0  0  0
    6.3353    1.3412    0.0000 C   0  0  0  0  0  0  0  0  0  0  0  0
    7.0497    1.7537    0.0000 N   0  0  0  0  0  0  0  0  0  0  0  0
    7.8034    1.4182    0.0000 C   0  0  0  0  0  0  0  0  0  0  0  0
    8.3555    2.0313    0.0000 C   0  0  0  0  0  0  0  0  0  0  0  0
    7.9430    2.7457    0.0000 C   0  0  0  0  0  0  0  0  0  0  0  0
    7.1360    2.5742    0.0000 C   0  0  0  0  0  0  0  0  0  0  0  0
    6.5229    3.1262    0.0000 O   0  0  0  0  0  0  0  0  0  0  0  0
   -1.1114    2.4682    0.0000 H   0  0  0  0  0  0  0  0  0  0  0  0
   -2.2384    2.1662    0.0000 H   0  0  0  0  0  0  0  0  0  0  0  0
   -1.9364    1.0393    0.0000 H   0  0  0  0  0  0  0  0  0  0  0  0
   -1.1797    0.6040    0.0000 H   0  0  0  0  0  0  0  0  0  0  0  0
   -0.4392    0.6040    0.0000 H   0  0  0  0  0  0  0  0  0  0  0  0
    0.2753    2.4910    0.0000 H   0  0  0  0  0  0  0  0  0  0  0  0
   -0.4652    2.4910    0.0000 H   0  0  0  0  0  0  0  0  0  0  0  0
    0.2492    0.6040    0.0000 H   0  0  0  0  0  0  0  0  0  0  0  0
    0.9898    0.6040    0.0000 H   0  0  0  0  0  0  0  0  0  0  0  0
    1.7042    2.4910    0.0000 H   0  0  0  0  0  0  0  0  0  0  0  0
    0.9637    2.4910    0.0000 H   0  0  0  0  0  0  0  0  0  0  0  0
    1.6782    0.6040    0.0000 H   0  0  0  0  0  0  0  0  0  0  0  0
    2.4187    0.6040    0.0000 H   0  0  0  0  0  0  0  0  0  0  0  0
    3.1332    2.4910    0.0000 H   0  0  0  0  0  0  0  0  0  0  0  0
    2.3927    2.4910    0.0000 H   0  0  0  0  0  0  0  0  0  0  0  0
    3.1071    0.6040    0.0000 H   0  0  0  0  0  0  0  0  0  0  0  0
    3.8477    0.6040    0.0000 H   0  0  0  0  0  0  0  0  0  0  0  0
    4.5621    2.4910    0.0000 H   0  0  0  0  0  0  0  0  0  0  0  0
    3.8216    2.4910    0.0000 H   0  0  0  0  0  0  0  0  0  0  0  0
    4.5361    0.6040    0.0000 H   0  0  0  0  0  0  0  0  0  0  0  0
    5.2766    0.6040    0.0000 H   0  0  0  0  0  0  0  0  0  0  0  0
    5.9911    2.4910    0.0000 H   0  0  0  0  0  0  0  0  0  0  0  0
    5.2505    2.4910    0.0000 H   0  0  0  0  0  0  0  0  0  0  0  0
    5.9650    0.6040    0.0000 H   0  0  0  0  0  0  0  0  0  0  0  0
    6.7055    0.6040    0.0000 H   0  0  0  0  0  0  0  0  0  0  0  0
    7.5760    0.6251    0.0000 H   0  0  0  0  0  0  0  0  0  0  0  0
    8.3337    0.7862    0.0000 H   0  0  0  0  0  0  0  0  0  0  0  0
    9.0394    1.5699    0.0000 H   0  0  0  0  0  0  0  0  0  0  0  0
    9.1204    2.3403    0.0000 H   0  0  0  0  0  0  0  0  0  0  0  0
    8.5931    3.2537    0.0000 H   0  0  0  0  0  0  0  0  0  0  0  0
    7.8854    3.5687    0.0000 H   0  0  0  0  0  0  0  0  0  0  0  0
  1  2  1  0  0  0  0
  2  3  1  0  0  0  0
  3  4  1  0  0  0  0
  4  5  1  0  0  0  0
  5  6  1  0  0  0  0
  6  7  1  0  0  0  0
  7  8  1  0  0  0  0
  8  9  1  0  0  0  0
  9 10  1  0  0  0  0
 10 11  1  0  0  0  0
 11 12  1  0  0  0  0
 12 13  1  0  0  0  0
 14 13  1  0  0  0  0
 15 14  1  0  0  0  0
 16 15  1  0  0  0  0
 17 16  1  0  0  0  0
 17 18  2  0  0  0  0
 13 17  1  0  0  0  0
  1 19  1  0  0  0  0
  1 20  1  0  0  0  0
  1 21  1  0  0  0  0
  2 22  1  0  0  0  0
  2 23  1  0  0  0  0
  3 24  1  0  0  0  0
  3 25  1  0  0  0  0
  4 26  1  0  0  0  0
  4 27  1  0  0  0  0
  5 28  1  0  0  0  0
  5 29  1  0  0  0  0
  6 30  1  0  0  0  0
  6 31  1  0  0  0  0
  7 32  1  0  0  0  0
  7 33  1  0  0  0  0
  8 34  1  0  0  0  0
  8 35  1  0  0  0  0
  9 36  1  0  0  0  0
  9 37  1  0  0  0  0
 10 38  1  0  0  0  0
 10 39  1  0  0  0  0
 11 40  1  0  0  0  0
 11 41  1  0  0  0  0
 12 42  1  0  0  0  0
 12 43  1  0  0  0  0
 14 44  1  0  0  0  0
 14 45  1  0  0  0  0
 15 46  1  0  0  0  0
 15 47  1  0  0  0  0
 16 48  1  0  0  0  0
 16 49  1  0  0  0  0
M  END
>  <id_input>
1932

>  <InChIKey>
NJPQAIBZIHNJDO-UHFFFAOYSA-N

>  <substance_name>
1-dodecylpyrrolidin-2-one

>  <casrn>
2687-96-9

>  <Molecular weight>
253.42344665527344

>  <guideline>
other: Federal Hazardous Substances Act, CFR 16, Section 1500.41

>  <species>
rabbit

>  <type_of_coverage>
occlusive

>  <max_duration(hrs)>
24.0

>  <vehicle>
unchanged (no vehicle)

>  <edema/ erythema score>
4.0

>  <max_score>
4.0

>  <reversibility>
1.0

>  <Outcome>
1

>  <StandardizerResult>
Remove Explicit Hydrogens (ID: RemoveExplicitH)
Clear Stereo (ID: ClearStereo)
Wedge Clean (ID: WedgeClean)
Mesomerize (ID: Mesomerize)
Tautomerize (ID: Tautomerize)
Add Explicit Hydrogens (ID: AddExplicitH)
Neutralize (ID: Neutralize)
Clean 2D (ID: Clean2D)


$$$$

  Mrv1812 02121911042D          

 45 44  0  0  0  0            999 V2000
   -2.5282    2.2480    0.0000 C   0  0  0  0  0  0  0  0  0  0  0  0
   -1.8137    2.6605    0.0000 C   0  0  0  0  0  0  0  0  0  0  0  0
   -1.4012    1.9460    0.0000 C   0  0  0  0  0  0  0  0  0  0  0  0
   -2.2262    3.3750    0.0000 C   0  0  0  0  0  0  0  0  0  0  0  0
   -1.0993    3.0730    0.0000 C   0  0  0  0  0  0  0  0  0  0  0  0
   -0.3848    2.6605    0.0000 C   0  0  0  0  0  0  0  0  0  0  0  0
    0.3297    3.0730    0.0000 C   0  0  0  0  0  0  0  0  0  0  0  0
    1.0441    2.6605    0.0000 C   0  0  0  0  0  0  0  0  0  0  0  0
    1.7586    3.0730    0.0000 C   0  0  0  0  0  0  0  0  0  0  0  0
    2.4731    2.6605    0.0000 C   0  0  0  0  0  0  0  0  0  0  0  0
    2.4731    1.8355    0.0000 O   0  0  0  0  0  0  0  0  0  0  0  0
    3.1876    3.0730    0.0000 O   0  0  0  0  0  0  0  0  0  0  0  0
    3.9020    2.6605    0.0000 O   0  0  0  0  0  0  0  0  0  0  0  0
    4.6165    3.0730    0.0000 C   0  0  0  0  0  0  0  0  0  0  0  0
    5.3310    3.4855    0.0000 C   0  0  0  0  0  0  0  0  0  0  0  0
    5.0290    2.3585    0.0000 C   0  0  0  0  0  0  0  0  0  0  0  0
    4.2040    3.7875    0.0000 C   0  0  0  0  0  0  0  0  0  0  0  0
   -2.9407    2.9625    0.0000 H   0  0  0  0  0  0  0  0  0  0  0  0
   -3.2427    1.8355    0.0000 H   0  0  0  0  0  0  0  0  0  0  0  0
   -2.1157    1.5335    0.0000 H   0  0  0  0  0  0  0  0  0  0  0  0
   -1.2936    1.1281    0.0000 H   0  0  0  0  0  0  0  0  0  0  0  0
   -0.6044    1.7325    0.0000 H   0  0  0  0  0  0  0  0  0  0  0  0
   -0.8990    2.6005    0.0000 H   0  0  0  0  0  0  0  0  0  0  0  0
   -1.4083    3.4826    0.0000 H   0  0  0  0  0  0  0  0  0  0  0  0
   -2.0127    4.1718    0.0000 H   0  0  0  0  0  0  0  0  0  0  0  0
   -2.8808    3.8772    0.0000 H   0  0  0  0  0  0  0  0  0  0  0  0
   -0.3362    3.3866    0.0000 H   0  0  0  0  0  0  0  0  0  0  0  0
   -0.8814    3.8687    0.0000 H   0  0  0  0  0  0  0  0  0  0  0  0
    0.0417    1.9543    0.0000 H   0  0  0  0  0  0  0  0  0  0  0  0
    0.4141    2.4548    0.0000 H   0  0  0  0  0  0  0  0  0  0  0  0
    0.9441    3.6235    0.0000 H   0  0  0  0  0  0  0  0  0  0  0  0
    0.4313    3.8917    0.0000 H   0  0  0  0  0  0  0  0  0  0  0  0
    1.0832    1.8364    0.0000 H   0  0  0  0  0  0  0  0  0  0  0  0
    1.6312    2.0809    0.0000 H   0  0  0  0  0  0  0  0  0  0  0  0
    2.1289    3.8102    0.0000 H   0  0  0  0  0  0  0  0  0  0  0  0
    1.3884    3.8102    0.0000 H   0  0  0  0  0  0  0  0  0  0  0  0
    5.7435    2.7710    0.0000 H   0  0  0  0  0  0  0  0  0  0  0  0
    6.0454    3.8980    0.0000 H   0  0  0  0  0  0  0  0  0  0  0  0
    4.9185    4.2000    0.0000 H   0  0  0  0  0  0  0  0  0  0  0  0
    4.2111    2.2508    0.0000 H   0  0  0  0  0  0  0  0  0  0  0  0
    4.8155    1.5616    0.0000 H   0  0  0  0  0  0  0  0  0  0  0  0
    5.6835    1.8563    0.0000 H   0  0  0  0  0  0  0  0  0  0  0  0
    4.0963    4.6054    0.0000 H   0  0  0  0  0  0  0  0  0  0  0  0
    3.4071    4.0010    0.0000 H   0  0  0  0  0  0  0  0  0  0  0  0
    3.7018    3.1329    0.0000 H   0  0  0  0  0  0  0  0  0  0  0  0
  1  2  1  0  0  0  0
  2  3  1  0  0  0  0
  2  4  1  0  0  0  0
  2  5  1  0  0  0  0
  5  6  1  0  0  0  0
  6  7  1  0  0  0  0
  7  8  1  0  0  0  0
  8  9  1  0  0  0  0
  9 10  1  0  0  0  0
 10 11  2  0  0  0  0
 10 12  1  0  0  0  0
 12 13  1  0  0  0  0
 13 14  1  0  0  0  0
 14 15  1  0  0  0  0
 14 16  1  0  0  0  0
 14 17  1  0  0  0  0
  1 18  1  0  0  0  0
  1 19  1  0  0  0  0
  1 20  1  0  0  0  0
  3 21  1  0  0  0  0
  3 22  1  0  0  0  0
  3 23  1  0  0  0  0
  4 24  1  0  0  0  0
  4 25  1  0  0  0  0
  4 26  1  0  0  0  0
  5 27  1  0  0  0  0
  5 28  1  0  0  0  0
  6 29  1  0  0  0  0
  6 30  1  0  0  0  0
  7 31  1  0  0  0  0
  7 32  1  0  0  0  0
  8 33  1  0  0  0  0
  8 34  1  0  0  0  0
  9 35  1  0  0  0  0
  9 36  1  0  0  0  0
 15 37  1  0  0  0  0
 15 38  1  0  0  0  0
 15 39  1  0  0  0  0
 16 40  1  0  0  0  0
 16 41  1  0  0  0  0
 16 42  1  0  0  0  0
 17 43  1  0  0  0  0
 17 44  1  0  0  0  0
 17 45  1  0  0  0  0
M  END
>  <id_input>
4994

>  <InChIKey>
NMOALOSNPWTWRH-UHFFFAOYSA-N

>  <substance_name>
tert-butyl 2,2,3,5-tetramethylhexaneperoxoate tert-butyl 2,2-diethylhexaneperoxoate tert-butyl 2,2-dimethyloctaneperoxoate tert-butyl 2,4-dimethyl-2-(propan-2-yl)pentaneperoxoate tert-butyl 2-ethyl-2,5-dimethylhexaneperoxoate

>  <casrn>
26748-41-4

>  <Molecular weight>
244.37033081054688

>  <guideline>
EU Method B.4 (Acute Toxicity: Dermal Irritation / Corrosion)

>  <species>
rabbit

>  <type_of_coverage>
semiocclusive

>  <max_duration(hrs)>
4.0

>  <vehicle>
unchanged (no vehicle)

>  <edema/ erythema score>
2.8

>  <max_score>
4.0

>  <reversibility>
0.0

>  <Outcome>
1

>  <StandardizerResult>
Remove Explicit Hydrogens (ID: RemoveExplicitH)
Clear Stereo (ID: ClearStereo)
Wedge Clean (ID: WedgeClean)
Mesomerize (ID: Mesomerize)
Tautomerize (ID: Tautomerize)
Add Explicit Hydrogens (ID: AddExplicitH)
Neutralize (ID: Neutralize)
Clean 2D (ID: Clean2D)


$$$$

  Mrv1812 02121911042D          

 28 29  0  0  0  0            999 V2000
   -2.1891   -0.0421    0.0000 C   0  0  0  0  0  0  0  0  0  0  0  0
   -2.1891    0.7829    0.0000 C   0  0  0  0  0  0  0  0  0  0  0  0
   -1.4746    1.1954    0.0000 C   0  0  0  0  0  0  0  0  0  0  0  0
   -0.7602    0.7829    0.0000 C   0  0  0  0  0  0  0  0  0  0  0  0
   -0.0457    1.1954    0.0000 C   0  0  0  0  0  0  0  0  0  0  0  0
    0.6688    0.7829    0.0000 C   0  0  0  0  0  0  0  0  0  0  0  0
    0.6688   -0.0421    0.0000 C   0  0  0  0  0  0  0  0  0  0  0  0
   -0.0457   -0.4546    0.0000 C   0  0  0  0  0  0  0  0  0  0  0  0
   -0.7602   -0.0421    0.0000 C   0  0  0  0  0  0  0  0  0  0  0  0
   -1.4746   -0.4546    0.0000 C   0  0  0  0  0  0  0  0  0  0  0  0
   -3.0127   -0.0901    0.0000 H   0  0  0  0  0  0  0  0  0  0  0  0
   -2.6424   -0.7314    0.0000 H   0  0  0  0  0  0  0  0  0  0  0  0
   -2.6424    1.4721    0.0000 H   0  0  0  0  0  0  0  0  0  0  0  0
   -3.0127    0.8308    0.0000 H   0  0  0  0  0  0  0  0  0  0  0  0
   -1.1044    1.9326    0.0000 H   0  0  0  0  0  0  0  0  0  0  0  0
   -1.8449    1.9326    0.0000 H   0  0  0  0  0  0  0  0  0  0  0  0
   -0.7602    1.6079    0.0000 H   0  0  0  0  0  0  0  0  0  0  0  0
    0.5863    1.7257    0.0000 H   0  0  0  0  0  0  0  0  0  0  0  0
    0.0976    2.0078    0.0000 H   0  0  0  0  0  0  0  0  0  0  0  0
    1.4532    0.5272    0.0000 H   0  0  0  0  0  0  0  0  0  0  0  0
    1.4279    1.1059    0.0000 H   0  0  0  0  0  0  0  0  0  0  0  0
    0.8449   -0.8481    0.0000 H   0  0  0  0  0  0  0  0  0  0  0  0
    1.3333   -0.5311    0.0000 H   0  0  0  0  0  0  0  0  0  0  0  0
   -0.4159   -1.1919    0.0000 H   0  0  0  0  0  0  0  0  0  0  0  0
    0.3246   -1.1919    0.0000 H   0  0  0  0  0  0  0  0  0  0  0  0
   -0.0457    0.3704    0.0000 H   0  0  0  0  0  0  0  0  0  0  0  0
   -1.8449   -1.1919    0.0000 H   0  0  0  0  0  0  0  0  0  0  0  0
   -1.1044   -1.1919    0.0000 H   0  0  0  0  0  0  0  0  0  0  0  0
  2  1  1  0  0  0  0
  3  2  1  0  0  0  0
  4  3  1  0  0  0  0
  4  5  1  0  0  0  0
  5  6  1  0  0  0  0
  6  7  1  0  0  0  0
  7  8  1  0  0  0  0
  8  9  1  0  0  0  0
 10  9  1  0  0  0  0
  1 10  1  0  0  0  0
  9  4  1  0  0  0  0
  1 11  1  0  0  0  0
  1 12  1  0  0  0  0
  2 13  1  0  0  0  0
  2 14  1  0  0  0  0
  3 15  1  0  0  0  0
  3 16  1  0  0  0  0
  4 17  1  0  0  0  0
  5 18  1  0  0  0  0
  5 19  1  0  0  0  0
  6 20  1  0  0  0  0
  6 21  1  0  0  0  0
  7 22  1  0  0  0  0
  7 23  1  0  0  0  0
  8 24  1  0  0  0  0
  8 25  1  0  0  0  0
  9 26  1  0  0  0  0
 10 27  1  0  0  0  0
 10 28  1  0  0  0  0
M  END
>  <id_input>
4076, 4077

>  <InChIKey>
NNBZCPXTIHJBJL-UHFFFAOYSA-N

>  <substance_name>
decahydronaphthalene

>  <casrn>
91-17-8

>  <Molecular weight>
138.2499237060547

>  <guideline>
OECD Guideline 404 (Acute Dermal Irritation / Corrosion)

>  <species>
rabbit

>  <type_of_coverage>
semiocclusive

>  <max_duration(hrs)>
4.0

>  <vehicle>
unchanged (no vehicle)

>  <edema/ erythema score>
4.0

>  <max_score>
4.0

>  <reversibility>
1.0

>  <Outcome>
1

>  <StandardizerResult>
Remove Explicit Hydrogens (ID: RemoveExplicitH)
Clear Stereo (ID: ClearStereo)
Wedge Clean (ID: WedgeClean)
Mesomerize (ID: Mesomerize)
Tautomerize (ID: Tautomerize)
Add Explicit Hydrogens (ID: AddExplicitH)
Neutralize (ID: Neutralize)
Clean 2D (ID: Clean2D)


$$$$

  Mrv1812 02121911042D          

 14 14  0  0  0  0            999 V2000
    1.1012    1.2117    0.0000 Cl  0  0  0  0  0  0  0  0  0  0  0  0
    0.3867    0.7992    0.0000 C   0  0  0  0  0  0  0  0  0  0  0  0
   -0.3278    1.2117    0.0000 C   0  0  0  0  0  0  0  0  0  0  0  0
   -1.0422    0.7992    0.0000 C   0  0  0  0  0  0  0  0  0  0  0  0
   -1.0422   -0.0258    0.0000 C   0  0  0  0  0  0  0  0  0  0  0  0
   -0.3278   -0.4383    0.0000 C   0  0  0  0  0  0  0  0  0  0  0  0
    0.3867   -0.0258    0.0000 C   0  0  0  0  0  0  0  0  0  0  0  0
    1.1012   -0.4383    0.0000 N   0  0  0  0  0  0  0  0  0  0  0  0
    1.8156   -0.0258    0.0000 C   0  0  0  0  0  0  0  0  0  0  0  0
    2.5301    0.3867    0.0000 O   0  0  0  0  0  0  0  0  0  0  0  0
   -0.3278    2.0367    0.0000 H   0  0  0  0  0  0  0  0  0  0  0  0
   -1.7567    1.2117    0.0000 H   0  0  0  0  0  0  0  0  0  0  0  0
   -1.7567   -0.4383    0.0000 H   0  0  0  0  0  0  0  0  0  0  0  0
   -0.3278   -1.2633    0.0000 H   0  0  0  0  0  0  0  0  0  0  0  0
  1  2  1  0  0  0  0
  3  2  4  0  0  0  0
  4  3  4  0  0  0  0
  5  4  4  0  0  0  0
  6  5  4  0  0  0  0
  7  6  4  0  0  0  0
  8  7  1  4  0  0  0
  8  9  2  0  0  0  0
  9 10  2  0  0  0  0
  2  7  4  0  0  0  0
  3 11  1  0  0  0  0
  4 12  1  0  0  0  0
  5 13  1  0  0  0  0
  6 14  1  0  0  0  0
M  END
>  <id_input>
1915

>  <InChIKey>
NOHQUGRVHSJYMR-UHFFFAOYSA-N

>  <substance_name>
1-chloro-2-isocyanatobenzene

>  <casrn>
3320-83-0

>  <Molecular weight>
153.56576538085938

>  <guideline>
OECD Guideline 404 (Acute Dermal Irritation / Corrosion)

>  <species>
rabbit

>  <type_of_coverage>
semiocclusive

>  <max_duration(hrs)>
4.0

>  <vehicle>
unchanged (no vehicle)

>  <edema/ erythema score>
2.0

>  <max_score>
4.0

>  <reversibility>
0.0

>  <Outcome>
1

>  <StandardizerResult>
Remove Explicit Hydrogens (ID: RemoveExplicitH)
Dearomatize (ID: Dearomatize)
Clear Stereo (ID: ClearStereo)
Wedge Clean (ID: WedgeClean)
Mesomerize (ID: Mesomerize)
Tautomerize (ID: Tautomerize)
Aromatize (ID: Aromatize)
Add Explicit Hydrogens (ID: AddExplicitH)
Neutralize (ID: Neutralize)
Clean 2D (ID: Clean2D)


$$$$

  Mrv1812 02121911042D          

 17 16  0  0  0  0            999 V2000
    0.0000   -0.0030    0.0000 C   0  0  0  0  0  0  0  0  0  0  0  0
    0.7145    0.4095    0.0000 C   0  0  0  0  0  0  0  0  0  0  0  0
    1.4290   -0.0030    0.0000 C   0  0  0  0  0  0  0  0  0  0  0  0
    2.1434    0.4095    0.0000 C   0  0  0  0  0  0  0  0  0  0  0  0
    2.8579   -0.0030    0.0000 C   0  0  0  0  0  0  0  0  0  0  0  0
    3.5724    0.4095    0.0000 O   0  0  0  0  0  0  0  0  0  0  0  0
    2.8579   -0.8280    0.0000 O   0  0  0  0  0  0  0  0  0  0  0  0
   -0.4125    0.7114    0.0000 H   0  0  0  0  0  0  0  0  0  0  0  0
   -0.7145   -0.4155    0.0000 H   0  0  0  0  0  0  0  0  0  0  0  0
    0.4125   -0.7175    0.0000 H   0  0  0  0  0  0  0  0  0  0  0  0
    1.0847    1.1467    0.0000 H   0  0  0  0  0  0  0  0  0  0  0  0
    0.3442    1.1467    0.0000 H   0  0  0  0  0  0  0  0  0  0  0  0
    1.0587   -0.7403    0.0000 H   0  0  0  0  0  0  0  0  0  0  0  0
    1.7992   -0.7403    0.0000 H   0  0  0  0  0  0  0  0  0  0  0  0
    2.5137    1.1467    0.0000 H   0  0  0  0  0  0  0  0  0  0  0  0
    1.7732    1.1467    0.0000 H   0  0  0  0  0  0  0  0  0  0  0  0
    4.2868   -0.0030    0.0000 H   0  0  0  0  0  0  0  0  0  0  0  0
  1  2  1  0  0  0  0
  2  3  1  0  0  0  0
  3  4  1  0  0  0  0
  4  5  1  0  0  0  0
  5  6  1  0  0  0  0
  5  7  2  0  0  0  0
  1  8  1  0  0  0  0
  1  9  1  0  0  0  0
  1 10  1  0  0  0  0
  2 11  1  0  0  0  0
  2 12  1  0  0  0  0
  3 13  1  0  0  0  0
  3 14  1  0  0  0  0
  4 15  1  0  0  0  0
  4 16  1  0  0  0  0
  6 17  1  0  0  0  0
M  END
>  <id_input>
6144

>  <InChIKey>
NQPDZGIKBAWPEJ-UHFFFAOYSA-N

>  <substance_name>
valeric acid

>  <casrn>
109-52-4

>  <Molecular weight>
102.13169860839844

>  <species>
rabbit

>  <type_of_coverage>
open

>  <max_duration(hrs)>
4.0

>  <vehicle>
unchanged (no vehicle)

>  <edema/ erythema score>
4.0

>  <max_score>
4.0

>  <reversibility>
1.0

>  <Outcome>
1

>  <StandardizerResult>
Remove Explicit Hydrogens (ID: RemoveExplicitH)
Clear Stereo (ID: ClearStereo)
Wedge Clean (ID: WedgeClean)
Mesomerize (ID: Mesomerize)
Tautomerize (ID: Tautomerize)
Add Explicit Hydrogens (ID: AddExplicitH)
Neutralize (ID: Neutralize)
Clean 2D (ID: Clean2D)


$$$$

  Mrv1812 02121911042D          

 25 24  0  0  0  0            999 V2000
    0.0001    0.3960    0.0000 C   0  0  0  0  0  0  0  0  0  0  0  0
    0.7145   -0.0165    0.0000 C   0  0  0  0  0  0  0  0  0  0  0  0
    1.4290    0.3960    0.0000 C   0  0  0  0  0  0  0  0  0  0  0  0
    2.1435   -0.0165    0.0000 C   0  0  0  0  0  0  0  0  0  0  0  0
    2.8579    0.3960    0.0000 C   0  0  0  0  0  0  0  0  0  0  0  0
    3.5724   -0.0165    0.0000 C   0  0  0  0  0  0  0  0  0  0  0  0
    4.2869    0.3960    0.0000 C   0  0  0  0  0  0  0  0  0  0  0  0
    5.0014   -0.0165    0.0000 C   0  0  0  0  0  0  0  0  0  0  0  0
    5.7158    0.3960    0.0000 O   0  0  0  0  0  0  0  0  0  0  0  0
    0.4126    1.1105    0.0000 H   0  0  0  0  0  0  0  0  0  0  0  0
   -0.7144    0.8085    0.0000 H   0  0  0  0  0  0  0  0  0  0  0  0
   -0.4124   -0.3185    0.0000 H   0  0  0  0  0  0  0  0  0  0  0  0
    0.3443   -0.7537    0.0000 H   0  0  0  0  0  0  0  0  0  0  0  0
    1.0848   -0.7537    0.0000 H   0  0  0  0  0  0  0  0  0  0  0  0
    1.7993    1.1332    0.0000 H   0  0  0  0  0  0  0  0  0  0  0  0
    1.0587    1.1332    0.0000 H   0  0  0  0  0  0  0  0  0  0  0  0
    1.7732   -0.7537    0.0000 H   0  0  0  0  0  0  0  0  0  0  0  0
    2.5137   -0.7537    0.0000 H   0  0  0  0  0  0  0  0  0  0  0  0
    3.2282    1.1332    0.0000 H   0  0  0  0  0  0  0  0  0  0  0  0
    2.4877    1.1332    0.0000 H   0  0  0  0  0  0  0  0  0  0  0  0
    3.2022   -0.7537    0.0000 H   0  0  0  0  0  0  0  0  0  0  0  0
    3.9427   -0.7537    0.0000 H   0  0  0  0  0  0  0  0  0  0  0  0
    4.6571    1.1332    0.0000 H   0  0  0  0  0  0  0  0  0  0  0  0
    3.9166    1.1332    0.0000 H   0  0  0  0  0  0  0  0  0  0  0  0
    5.0014   -0.8415    0.0000 H   0  0  0  0  0  0  0  0  0  0  0  0
  1  2  1  0  0  0  0
  2  3  1  0  0  0  0
  3  4  1  0  0  0  0
  4  5  1  0  0  0  0
  5  6  1  0  0  0  0
  6  7  1  0  0  0  0
  7  8  1  0  0  0  0
  8  9  2  0  0  0  0
  1 10  1  0  0  0  0
  1 11  1  0  0  0  0
  1 12  1  0  0  0  0
  2 13  1  0  0  0  0
  2 14  1  0  0  0  0
  3 15  1  0  0  0  0
  3 16  1  0  0  0  0
  4 17  1  0  0  0  0
  4 18  1  0  0  0  0
  5 19  1  0  0  0  0
  5 20  1  0  0  0  0
  6 21  1  0  0  0  0
  6 22  1  0  0  0  0
  7 23  1  0  0  0  0
  7 24  1  0  0  0  0
  8 25  1  0  0  0  0
M  END
>  <id_input>
4725

>  <InChIKey>
NUJGJRNETVAIRJ-UHFFFAOYSA-N

>  <substance_name>
octanal

>  <casrn>
124-13-0

>  <Molecular weight>
128.2120361328125

>  <guideline>
EU Method B.4 (Acute Toxicity: Dermal Irritation / Corrosion)

>  <species>
rabbit

>  <type_of_coverage>
semiocclusive

>  <max_duration(hrs)>
4.0

>  <vehicle>
unchanged (no vehicle)

>  <edema/ erythema score>
1.925

>  <max_score>
2.0

>  <reversibility>
0.0

>  <Outcome>
1

>  <StandardizerResult>
Remove Explicit Hydrogens (ID: RemoveExplicitH)
Clear Stereo (ID: ClearStereo)
Wedge Clean (ID: WedgeClean)
Mesomerize (ID: Mesomerize)
Tautomerize (ID: Tautomerize)
Add Explicit Hydrogens (ID: AddExplicitH)
Neutralize (ID: Neutralize)
Clean 2D (ID: Clean2D)


$$$$

  Mrv1812 02121911042D          

 23 22  0  0  0  0            999 V2000
   -0.1243    0.2152    0.0000 C   0  0  0  0  0  0  0  0  0  0  0  0
    0.5902    0.6277    0.0000 C   0  0  0  0  0  0  0  0  0  0  0  0
    1.3046    0.2152    0.0000 C   0  0  0  0  0  0  0  0  0  0  0  0
    2.0191    0.6277    0.0000 C   0  0  0  0  0  0  0  0  0  0  0  0
    2.7336    0.2152    0.0000 C   0  0  0  0  0  0  0  0  0  0  0  0
    3.4481    0.6277    0.0000 C   0  0  0  0  0  0  0  0  0  0  0  0
    3.4481    1.4527    0.0000 O   0  0  0  0  0  0  0  0  0  0  0  0
    4.1625    0.2152    0.0000 O   0  0  0  0  0  0  0  0  0  0  0  0
    4.8770    0.6277    0.0000 C   0  0  0  0  0  0  0  0  0  0  0  0
   -0.5368    0.9297    0.0000 H   0  0  0  0  0  0  0  0  0  0  0  0
   -0.8388   -0.1973    0.0000 H   0  0  0  0  0  0  0  0  0  0  0  0
    0.2882   -0.4993    0.0000 H   0  0  0  0  0  0  0  0  0  0  0  0
    0.9604    1.3649    0.0000 H   0  0  0  0  0  0  0  0  0  0  0  0
    0.2199    1.3649    0.0000 H   0  0  0  0  0  0  0  0  0  0  0  0
    0.9344   -0.5220    0.0000 H   0  0  0  0  0  0  0  0  0  0  0  0
    1.6749   -0.5220    0.0000 H   0  0  0  0  0  0  0  0  0  0  0  0
    2.3894    1.3649    0.0000 H   0  0  0  0  0  0  0  0  0  0  0  0
    1.6489    1.3649    0.0000 H   0  0  0  0  0  0  0  0  0  0  0  0
    2.3633   -0.5220    0.0000 H   0  0  0  0  0  0  0  0  0  0  0  0
    3.1038   -0.5220    0.0000 H   0  0  0  0  0  0  0  0  0  0  0  0
    5.2895   -0.0868    0.0000 H   0  0  0  0  0  0  0  0  0  0  0  0
    5.5915    1.0402    0.0000 H   0  0  0  0  0  0  0  0  0  0  0  0
    4.4645    1.3422    0.0000 H   0  0  0  0  0  0  0  0  0  0  0  0
  1  2  1  0  0  0  0
  2  3  1  0  0  0  0
  3  4  1  0  0  0  0
  4  5  1  0  0  0  0
  5  6  1  0  0  0  0
  6  7  2  0  0  0  0
  6  8  1  0  0  0  0
  8  9  1  0  0  0  0
  1 10  1  0  0  0  0
  1 11  1  0  0  0  0
  1 12  1  0  0  0  0
  2 13  1  0  0  0  0
  2 14  1  0  0  0  0
  3 15  1  0  0  0  0
  3 16  1  0  0  0  0
  4 17  1  0  0  0  0
  4 18  1  0  0  0  0
  5 19  1  0  0  0  0
  5 20  1  0  0  0  0
  9 21  1  0  0  0  0
  9 22  1  0  0  0  0
  9 23  1  0  0  0  0
M  END
>  <id_input>
4563

>  <InChIKey>
NUKZAGXMHTUAFE-UHFFFAOYSA-N

>  <substance_name>
methyl hexanoate

>  <casrn>
106-70-7

>  <Molecular weight>
130.1848602294922

>  <guideline>
OECD Guideline 404 (Acute Dermal Irritation / Corrosion)

>  <species>
rabbit

>  <type_of_coverage>
semiocclusive

>  <max_duration(hrs)>
4.0

>  <vehicle>
unchanged (no vehicle)

>  <edema/ erythema score>
1.7

>  <max_score>
4.0

>  <reversibility>
0.0

>  <Outcome>
1

>  <StandardizerResult>
Remove Explicit Hydrogens (ID: RemoveExplicitH)
Clear Stereo (ID: ClearStereo)
Wedge Clean (ID: WedgeClean)
Mesomerize (ID: Mesomerize)
Tautomerize (ID: Tautomerize)
Add Explicit Hydrogens (ID: AddExplicitH)
Neutralize (ID: Neutralize)
Clean 2D (ID: Clean2D)


$$$$

  Mrv1812 02121911042D          

 17 17  0  0  0  0            999 V2000
    2.1114    0.1959    0.0000 C   0  0  0  0  0  0  0  0  0  0  0  0
    1.3969    0.6084    0.0000 O   0  0  0  0  0  0  0  0  0  0  0  0
    0.6824    0.1959    0.0000 C   0  0  0  0  0  0  0  0  0  0  0  0
   -0.0320    0.6084    0.0000 C   0  0  0  0  0  0  0  0  0  0  0  0
   -0.7465    0.1959    0.0000 C   0  0  0  0  0  0  0  0  0  0  0  0
   -0.7465   -0.6291    0.0000 C   0  0  0  0  0  0  0  0  0  0  0  0
   -1.4610   -1.0416    0.0000 O   0  0  0  0  0  0  0  0  0  0  0  0
   -0.0320   -1.0416    0.0000 C   0  0  0  0  0  0  0  0  0  0  0  0
    0.6824   -0.6291    0.0000 C   0  0  0  0  0  0  0  0  0  0  0  0
    1.6989   -0.5186    0.0000 H   0  0  0  0  0  0  0  0  0  0  0  0
    2.8259   -0.2166    0.0000 H   0  0  0  0  0  0  0  0  0  0  0  0
    2.5239    0.9104    0.0000 H   0  0  0  0  0  0  0  0  0  0  0  0
   -0.0320    1.4334    0.0000 H   0  0  0  0  0  0  0  0  0  0  0  0
   -1.4610    0.6084    0.0000 H   0  0  0  0  0  0  0  0  0  0  0  0
   -2.1754   -0.6291    0.0000 H   0  0  0  0  0  0  0  0  0  0  0  0
   -0.0320   -1.8666    0.0000 H   0  0  0  0  0  0  0  0  0  0  0  0
    1.3969   -1.0416    0.0000 H   0  0  0  0  0  0  0  0  0  0  0  0
  1  2  1  0  0  0  0
  2  3  1  0  0  0  0
  4  3  4  0  0  0  0
  5  4  4  0  0  0  0
  6  5  4  0  0  0  0
  6  7  1  0  0  0  0
  8  6  4  0  0  0  0
  9  8  4  0  0  0  0
  3  9  4  0  0  0  0
  1 10  1  0  0  0  0
  1 11  1  0  0  0  0
  1 12  1  0  0  0  0
  4 13  1  0  0  0  0
  5 14  1  0  0  0  0
  7 15  1  0  0  0  0
  8 16  1  0  0  0  0
  9 17  1  0  0  0  0
M  END
>  <id_input>
2908

>  <InChIKey>
NWVVVBRKAWDGAB-UHFFFAOYSA-N

>  <substance_name>
4-methoxyphenol

>  <casrn>
150-76-5

>  <Molecular weight>
124.13722229003906

>  <guideline>
OECD Guideline 404 (Acute Dermal Irritation / Corrosion)

>  <species>
rabbit

>  <type_of_coverage>
semiocclusive

>  <max_duration(hrs)>
4.0

>  <vehicle>
water

>  <edema/ erythema score>
1.78

>  <max_score>
4.0

>  <reversibility>
0.0

>  <Outcome>
1

>  <StandardizerResult>
Remove Explicit Hydrogens (ID: RemoveExplicitH)
Dearomatize (ID: Dearomatize)
Clear Stereo (ID: ClearStereo)
Wedge Clean (ID: WedgeClean)
Mesomerize (ID: Mesomerize)
Tautomerize (ID: Tautomerize)
Aromatize (ID: Aromatize)
Add Explicit Hydrogens (ID: AddExplicitH)
Neutralize (ID: Neutralize)
Clean 2D (ID: Clean2D)


$$$$

  Mrv1812 02121911042D          

 17 16  0  0  0  0            999 V2000
    1.8236    1.8488    0.0000 C   0  0  0  0  0  0  0  0  0  0  0  0
    1.4111    1.1344    0.0000 O   0  0  0  0  0  0  0  0  0  0  0  0
    1.8236    0.4199    0.0000 C   0  0  0  0  0  0  0  0  0  0  0  0
    1.4111   -0.2946    0.0000 C   0  0  0  0  0  0  0  0  0  0  0  0
    1.8236   -1.0091    0.0000 C   0  0  0  0  0  0  0  0  0  0  0  0
    0.5861   -0.2946    0.0000 N   0  0  0  0  0  0  0  0  0  0  0  0
    2.5381    1.4363    0.0000 H   0  0  0  0  0  0  0  0  0  0  0  0
    2.2361    2.5633    0.0000 H   0  0  0  0  0  0  0  0  0  0  0  0
    1.1092    2.2613    0.0000 H   0  0  0  0  0  0  0  0  0  0  0  0
    2.5609    0.0496    0.0000 H   0  0  0  0  0  0  0  0  0  0  0  0
    2.5609    0.7901    0.0000 H   0  0  0  0  0  0  0  0  0  0  0  0
    2.2361   -0.2946    0.0000 H   0  0  0  0  0  0  0  0  0  0  0  0
    1.0267   -1.2226    0.0000 H   0  0  0  0  0  0  0  0  0  0  0  0
    1.8236   -1.8341    0.0000 H   0  0  0  0  0  0  0  0  0  0  0  0
    2.6205   -1.2226    0.0000 H   0  0  0  0  0  0  0  0  0  0  0  0
    0.1736    0.4199    0.0000 H   0  0  0  0  0  0  0  0  0  0  0  0
    0.1736   -1.0091    0.0000 H   0  0  0  0  0  0  0  0  0  0  0  0
  1  2  1  0  0  0  0
  2  3  1  0  0  0  0
  3  4  1  0  0  0  0
  4  5  1  0  0  0  0
  4  6  1  0  0  0  0
  1  7  1  0  0  0  0
  1  8  1  0  0  0  0
  1  9  1  0  0  0  0
  3 10  1  0  0  0  0
  3 11  1  0  0  0  0
  4 12  1  0  0  0  0
  5 13  1  0  0  0  0
  5 14  1  0  0  0  0
  5 15  1  0  0  0  0
  6 16  1  0  0  0  0
  6 17  1  0  0  0  0
M  END
>  <id_input>
5385

>  <InChIKey>
NXMXETCTWNXSFG-UHFFFAOYSA-N

>  <substance_name>
unnamed [37143-54-7]

>  <casrn>
37143-54-7

>  <Molecular weight>
89.13623809814453

>  <guideline>
OECD Guideline 404 (Acute Dermal Irritation / Corrosion)

>  <species>
rabbit

>  <type_of_coverage>
semiocclusive

>  <max_duration(hrs)>
1.0

>  <vehicle>
unchanged (no vehicle)

>  <edema/ erythema score>
4.0

>  <max_score>
4.0

>  <reversibility>
0.0

>  <Outcome>
1

>  <StandardizerResult>
Remove Explicit Hydrogens (ID: RemoveExplicitH)
Clear Stereo (ID: ClearStereo)
Wedge Clean (ID: WedgeClean)
Mesomerize (ID: Mesomerize)
Tautomerize (ID: Tautomerize)
Add Explicit Hydrogens (ID: AddExplicitH)
Neutralize (ID: Neutralize)
Clean 2D (ID: Clean2D)


$$$$

  Mrv1812 02121911042D          

 26 25  0  0  0  0            999 V2000
   -0.0742   -1.4532    0.0000 O   0  0  0  0  0  0  0  0  0  0  0  0
    0.7508   -1.4532    0.0000 C   0  0  0  0  0  0  0  0  0  0  0  0
    1.1633   -2.1677    0.0000 O   0  0  0  0  0  0  0  0  0  0  0  0
    1.1633   -0.7387    0.0000 C   0  0  0  0  0  0  0  0  0  0  0  0
    0.7508   -0.0243    0.0000 C   0  0  0  0  0  0  0  0  0  0  0  0
    1.1633    0.6902    0.0000 C   0  0  0  0  0  0  0  0  0  0  0  0
    1.9883   -0.7387    0.0000 C   0  0  0  0  0  0  0  0  0  0  0  0
    2.4008   -0.0243    0.0000 C   0  0  0  0  0  0  0  0  0  0  0  0
    3.2258   -0.0243    0.0000 C   0  0  0  0  0  0  0  0  0  0  0  0
    3.6383    0.6902    0.0000 C   0  0  0  0  0  0  0  0  0  0  0  0
   -0.4867   -0.7387    0.0000 H   0  0  0  0  0  0  0  0  0  0  0  0
    0.3383   -0.7387    0.0000 H   0  0  0  0  0  0  0  0  0  0  0  0
    0.2205    0.6077    0.0000 H   0  0  0  0  0  0  0  0  0  0  0  0
   -0.0617    0.1190    0.0000 H   0  0  0  0  0  0  0  0  0  0  0  0
    1.7592    0.1197    0.0000 H   0  0  0  0  0  0  0  0  0  0  0  0
    1.8591    1.1335    0.0000 H   0  0  0  0  0  0  0  0  0  0  0  0
    0.8981    1.4714    0.0000 H   0  0  0  0  0  0  0  0  0  0  0  0
    2.0363   -1.5624    0.0000 H   0  0  0  0  0  0  0  0  0  0  0  0
    2.6776   -1.1921    0.0000 H   0  0  0  0  0  0  0  0  0  0  0  0
    2.4917    0.7957    0.0000 H   0  0  0  0  0  0  0  0  0  0  0  0
    2.8133   -0.7387    0.0000 H   0  0  0  0  0  0  0  0  0  0  0  0
    3.7561   -0.6563    0.0000 H   0  0  0  0  0  0  0  0  0  0  0  0
    4.0383   -0.1675    0.0000 H   0  0  0  0  0  0  0  0  0  0  0  0
    4.4474    0.8511    0.0000 H   0  0  0  0  0  0  0  0  0  0  0  0
    3.6743    1.5144    0.0000 H   0  0  0  0  0  0  0  0  0  0  0  0
    2.8462    0.9211    0.0000 H   0  0  0  0  0  0  0  0  0  0  0  0
  1  2  1  0  0  0  0
  2  3  2  0  0  0  0
  2  4  1  0  0  0  0
  4  5  1  0  0  0  0
  5  6  1  0  0  0  0
  4  7  1  0  0  0  0
  7  8  1  0  0  0  0
  8  9  1  0  0  0  0
  9 10  1  0  0  0  0
  1 11  1  0  0  0  0
  4 12  1  0  0  0  0
  5 13  1  0  0  0  0
  5 14  1  0  0  0  0
  6 15  1  0  0  0  0
  6 16  1  0  0  0  0
  6 17  1  0  0  0  0
  7 18  1  0  0  0  0
  7 19  1  0  0  0  0
  8 20  1  0  0  0  0
  8 21  1  0  0  0  0
  9 22  1  0  0  0  0
  9 23  1  0  0  0  0
 10 24  1  0  0  0  0
 10 25  1  0  0  0  0
 10 26  1  0  0  0  0
M  END
>  <id_input>
6170

>  <InChIKey>
OBETXYAYXDNJHR-UHFFFAOYSA-N

>  <substance_name>
zinc(2+) ion bis(2-ethylhexanoate)

>  <casrn>
85203-81-2

>  <Molecular weight>
143.20350646972656

>  <guideline>
OECD Guideline 404 (Acute Dermal Irritation / Corrosion)

>  <species>
rabbit

>  <type_of_coverage>
semiocclusive

>  <max_duration(hrs)>
4.0

>  <vehicle>
unchanged (no vehicle)

>  <edema/ erythema score>
2.11

>  <max_score>
4.0

>  <reversibility>
0.0

>  <Outcome>
1

>  <StandardizerResult>
Remove Explicit Hydrogens (ID: RemoveExplicitH)
Clear Stereo (ID: ClearStereo)
Wedge Clean (ID: WedgeClean)
Mesomerize (ID: Mesomerize)
Tautomerize (ID: Tautomerize)
Add Explicit Hydrogens (ID: AddExplicitH)
Neutralize (ID: Neutralize)
Clean 2D (ID: Clean2D)


$$$$

  Mrv1812 02121911042D          

 17 16  0  0  0  0            999 V2000
    2.5735   -0.6927    0.0000 C   0  0  0  0  0  0  0  0  0  0  0  0
    2.1610    0.0218    0.0000 C   0  0  0  0  0  0  0  0  0  0  0  0
    1.3360    0.0218    0.0000 C   0  0  0  0  0  0  0  0  0  0  0  0
    0.9235    0.7363    0.0000 C   0  0  0  0  0  0  0  0  0  0  0  0
    0.0985    0.7363    0.0000 C   0  0  0  0  0  0  0  0  0  0  0  0
    1.8590   -1.1052    0.0000 H   0  0  0  0  0  0  0  0  0  0  0  0
    2.9860   -1.4071    0.0000 H   0  0  0  0  0  0  0  0  0  0  0  0
    3.2880   -0.2802    0.0000 H   0  0  0  0  0  0  0  0  0  0  0  0
    2.8503    0.4752    0.0000 H   0  0  0  0  0  0  0  0  0  0  0  0
    2.2090    0.8454    0.0000 H   0  0  0  0  0  0  0  0  0  0  0  0
    0.6467   -0.4315    0.0000 H   0  0  0  0  0  0  0  0  0  0  0  0
    1.2880   -0.8018    0.0000 H   0  0  0  0  0  0  0  0  0  0  0  0
    1.6128    1.1896    0.0000 H   0  0  0  0  0  0  0  0  0  0  0  0
    0.9715    1.5599    0.0000 H   0  0  0  0  0  0  0  0  0  0  0  0
    0.0985    1.5613    0.0000 H   0  0  0  0  0  0  0  0  0  0  0  0
   -0.7265    0.7363    0.0000 H   0  0  0  0  0  0  0  0  0  0  0  0
    0.0985   -0.0887    0.0000 H   0  0  0  0  0  0  0  0  0  0  0  0
  1  2  1  0  0  0  0
  2  3  1  0  0  0  0
  3  4  1  0  0  0  0
  4  5  1  0  0  0  0
  1  6  1  0  0  0  0
  1  7  1  0  0  0  0
  1  8  1  0  0  0  0
  2  9  1  0  0  0  0
  2 10  1  0  0  0  0
  3 11  1  0  0  0  0
  3 12  1  0  0  0  0
  4 13  1  0  0  0  0
  4 14  1  0  0  0  0
  5 15  1  0  0  0  0
  5 16  1  0  0  0  0
  5 17  1  0  0  0  0
M  END
>  <id_input>
3358

>  <InChIKey>
OFBQJSOFQDEBGM-UHFFFAOYSA-N

>  <substance_name>
Hydrocarbons, C5-rich

>  <casrn>
68476-55-1

>  <Molecular weight>
72.1487808227539

>  <guideline>
EPA OTS 798.4470 (Acute Dermal Irritation)

>  <species>
rabbit

>  <type_of_coverage>
occlusive

>  <max_duration(hrs)>
4.0

>  <vehicle>
unchanged (no vehicle)

>  <edema/ erythema score>
3.2

>  <max_score>
4.0

>  <reversibility>
1.0

>  <Outcome>
1

>  <StandardizerResult>
Remove Explicit Hydrogens (ID: RemoveExplicitH)
Clear Stereo (ID: ClearStereo)
Wedge Clean (ID: WedgeClean)
Mesomerize (ID: Mesomerize)
Tautomerize (ID: Tautomerize)
Add Explicit Hydrogens (ID: AddExplicitH)
Neutralize (ID: Neutralize)
Clean 2D (ID: Clean2D)


$$$$

  Mrv1812 02121911042D          

 32 31  0  0  0  0            999 V2000
   -0.0001    0.0000    0.0000 C   0  0  0  0  0  0  0  0  0  0  0  0
    0.7144    0.4125    0.0000 C   0  0  0  0  0  0  0  0  0  0  0  0
    1.4288    0.0000    0.0000 C   0  0  0  0  0  0  0  0  0  0  0  0
    2.1433    0.4125    0.0000 C   0  0  0  0  0  0  0  0  0  0  0  0
    2.8578    0.0000    0.0000 C   0  0  0  0  0  0  0  0  0  0  0  0
    3.5722    0.4125    0.0000 C   0  0  0  0  0  0  0  0  0  0  0  0
    4.2867    0.0000    0.0000 C   0  0  0  0  0  0  0  0  0  0  0  0
    5.0012    0.4125    0.0000 C   0  0  0  0  0  0  0  0  0  0  0  0
    5.7157    0.0000    0.0000 C   0  0  0  0  0  0  0  0  0  0  0  0
    6.4301    0.4125    0.0000 C   0  0  0  0  0  0  0  0  0  0  0  0
    7.1446    0.0000    0.0000 C   0  0  0  0  0  0  0  0  0  0  0  0
    7.8591    0.4125    0.0000 O   0  0  0  0  0  0  0  0  0  0  0  0
   -0.7146    0.4125    0.0000 H   0  0  0  0  0  0  0  0  0  0  0  0
   -0.0001   -0.8250    0.0000 H   0  0  0  0  0  0  0  0  0  0  0  0
    0.7144    1.2375    0.0000 H   0  0  0  0  0  0  0  0  0  0  0  0
    1.0586   -0.7372    0.0000 H   0  0  0  0  0  0  0  0  0  0  0  0
    1.7991   -0.7372    0.0000 H   0  0  0  0  0  0  0  0  0  0  0  0
    2.5136    1.1497    0.0000 H   0  0  0  0  0  0  0  0  0  0  0  0
    1.7730    1.1497    0.0000 H   0  0  0  0  0  0  0  0  0  0  0  0
    2.4875   -0.7372    0.0000 H   0  0  0  0  0  0  0  0  0  0  0  0
    3.2280   -0.7372    0.0000 H   0  0  0  0  0  0  0  0  0  0  0  0
    3.9425    1.1497    0.0000 H   0  0  0  0  0  0  0  0  0  0  0  0
    3.2020    1.1497    0.0000 H   0  0  0  0  0  0  0  0  0  0  0  0
    3.9165   -0.7372    0.0000 H   0  0  0  0  0  0  0  0  0  0  0  0
    4.6570   -0.7372    0.0000 H   0  0  0  0  0  0  0  0  0  0  0  0
    5.3714    1.1497    0.0000 H   0  0  0  0  0  0  0  0  0  0  0  0
    4.6309    1.1497    0.0000 H   0  0  0  0  0  0  0  0  0  0  0  0
    5.3454   -0.7372    0.0000 H   0  0  0  0  0  0  0  0  0  0  0  0
    6.0859   -0.7372    0.0000 H   0  0  0  0  0  0  0  0  0  0  0  0
    6.8004    1.1497    0.0000 H   0  0  0  0  0  0  0  0  0  0  0  0
    6.0599    1.1497    0.0000 H   0  0  0  0  0  0  0  0  0  0  0  0
    7.1446   -0.8250    0.0000 H   0  0  0  0  0  0  0  0  0  0  0  0
  1  2  2  0  0  0  0
  2  3  1  0  0  0  0
  3  4  1  0  0  0  0
  4  5  1  0  0  0  0
  5  6  1  0  0  0  0
  6  7  1  0  0  0  0
  7  8  1  0  0  0  0
  8  9  1  0  0  0  0
  9 10  1  0  0  0  0
 10 11  1  0  0  0  0
 11 12  2  0  0  0  0
  1 13  1  0  0  0  0
  1 14  1  0  0  0  0
  2 15  1  0  0  0  0
  3 16  1  0  0  0  0
  3 17  1  0  0  0  0
  4 18  1  0  0  0  0
  4 19  1  0  0  0  0
  5 20  1  0  0  0  0
  5 21  1  0  0  0  0
  6 22  1  0  0  0  0
  6 23  1  0  0  0  0
  7 24  1  0  0  0  0
  7 25  1  0  0  0  0
  8 26  1  0  0  0  0
  8 27  1  0  0  0  0
  9 28  1  0  0  0  0
  9 29  1  0  0  0  0
 10 30  1  0  0  0  0
 10 31  1  0  0  0  0
 11 32  1  0  0  0  0
M  END
>  <id_input>
5213

>  <InChIKey>
OFHHDSQXFXLTKC-UHFFFAOYSA-N

>  <substance_name>
undec-10-enal

>  <casrn>
112-45-8

>  <Molecular weight>
168.27590942382812

>  <guideline>
OECD Guideline 404 (Acute Dermal Irritation / Corrosion)

>  <species>
rabbit

>  <type_of_coverage>
occlusive

>  <max_duration(hrs)>
4.0

>  <vehicle>
unchanged (no vehicle)

>  <edema/ erythema score>
1.5

>  <max_score>
4.0

>  <reversibility>
0.0

>  <Outcome>
1

>  <StandardizerResult>
Remove Explicit Hydrogens (ID: RemoveExplicitH)
Clear Stereo (ID: ClearStereo)
Wedge Clean (ID: WedgeClean)
Mesomerize (ID: Mesomerize)
Tautomerize (ID: Tautomerize)
Add Explicit Hydrogens (ID: AddExplicitH)
Neutralize (ID: Neutralize)
Clean 2D (ID: Clean2D)


$$$$

  Mrv1812 02121911042D          

 27 26  0  0  0  0            999 V2000
    0.3938    0.9025    0.0000 C   0  0  0  0  0  0  0  0  0  0  0  0
    1.2188    0.9025    0.0000 C   0  0  0  0  0  0  0  0  0  0  0  0
    1.6313    0.1880    0.0000 C   0  0  0  0  0  0  0  0  0  0  0  0
    2.0438   -0.5265    0.0000 O   0  0  0  0  0  0  0  0  0  0  0  0
    2.3457    0.6005    0.0000 P   0  0  0  0  0  0  0  0  0  0  0  0
    3.0602    1.0130    0.0000 O   0  0  0  0  0  0  0  0  0  0  0  0
    1.9332    1.3150    0.0000 O   0  0  0  0  0  0  0  0  0  0  0  0
    2.7582   -0.1140    0.0000 O   0  0  0  0  0  0  0  0  0  0  0  0
    0.9168   -0.2245    0.0000 P   0  0  0  0  0  0  0  0  0  0  0  0
    1.3293   -0.9390    0.0000 O   0  0  0  0  0  0  0  0  0  0  0  0
    0.2023   -0.6370    0.0000 O   0  0  0  0  0  0  0  0  0  0  0  0
    0.5043    0.4900    0.0000 O   0  0  0  0  0  0  0  0  0  0  0  0
   -0.0187    1.6170    0.0000 C   0  0  0  0  0  0  0  0  0  0  0  0
   -0.8437    1.6170    0.0000 N   0  0  0  0  0  0  0  0  0  0  0  0
   -0.3684    0.5868    0.0000 H   0  0  0  0  0  0  0  0  0  0  0  0
    0.8063    1.6170    0.0000 H   0  0  0  0  0  0  0  0  0  0  0  0
    1.4323    1.6994    0.0000 H   0  0  0  0  0  0  0  0  0  0  0  0
    2.0156    0.6890    0.0000 H   0  0  0  0  0  0  0  0  0  0  0  0
    2.4563   -1.2409    0.0000 H   0  0  0  0  0  0  0  0  0  0  0  0
    2.5535    1.8589    0.0000 H   0  0  0  0  0  0  0  0  0  0  0  0
    3.5551   -0.3275    0.0000 H   0  0  0  0  0  0  0  0  0  0  0  0
   -0.5122   -0.2245    0.0000 H   0  0  0  0  0  0  0  0  0  0  0  0
    0.0530   -0.2006    0.0000 H   0  0  0  0  0  0  0  0  0  0  0  0
    0.2634    2.3922    0.0000 H   0  0  0  0  0  0  0  0  0  0  0  0
   -0.3009    2.3922    0.0000 H   0  0  0  0  0  0  0  0  0  0  0  0
   -1.6636    1.7088    0.0000 H   0  0  0  0  0  0  0  0  0  0  0  0
   -1.2388    0.8927    0.0000 H   0  0  0  0  0  0  0  0  0  0  0  0
  1  2  1  0  0  0  0
  2  3  1  0  0  0  0
  3  4  1  0  0  0  0
  3  5  1  0  0  0  0
  5  6  2  0  0  0  0
  5  7  1  0  0  0  0
  5  8  1  0  0  0  0
  3  9  1  0  0  0  0
  9 10  2  0  0  0  0
  9 11  1  0  0  0  0
  9 12  1  0  0  0  0
  1 13  1  0  0  0  0
 13 14  1  0  0  0  0
  1 15  1  0  0  0  0
  1 16  1  0  0  0  0
  2 17  1  0  0  0  0
  2 18  1  0  0  0  0
  4 19  1  0  0  0  0
  7 20  1  0  0  0  0
  8 21  1  0  0  0  0
 11 22  1  0  0  0  0
 12 23  1  0  0  0  0
 13 24  1  0  0  0  0
 13 25  1  0  0  0  0
 14 26  1  0  0  0  0
 14 27  1  0  0  0  0
M  END
>  <id_input>
5303

>  <InChIKey>
OGSPWJRAVKPPFI-UHFFFAOYSA-N

>  <substance_name>
unnamed [138624-11-0]

>  <casrn>
138624-11-0

>  <Molecular weight>
249.09603881835938

>  <species>
rabbit

>  <type_of_coverage>
occlusive

>  <max_duration(hrs)>
24.0

>  <vehicle>
unchanged (no vehicle)

>  <edema/ erythema score>
3.0

>  <max_score>
3.0

>  <reversibility>
1.0

>  <Outcome>
1

>  <StandardizerResult>
Remove Explicit Hydrogens (ID: RemoveExplicitH)
Clear Stereo (ID: ClearStereo)
Wedge Clean (ID: WedgeClean)
Mesomerize (ID: Mesomerize)
Tautomerize (ID: Tautomerize)
Add Explicit Hydrogens (ID: AddExplicitH)
Neutralize (ID: Neutralize)
Clean 2D (ID: Clean2D)


$$$$

  Mrv1812 02121911042D          

 32 31  0  0  0  0            999 V2000
   -1.2185    2.1614    0.0000 C   0  0  0  0  0  0  0  0  0  0  0  0
   -0.5040    2.5739    0.0000 N   0  0  0  0  0  0  0  0  0  0  0  0
   -0.5040    3.3989    0.0000 C   0  0  0  0  0  0  0  0  0  0  0  0
    0.2105    2.1614    0.0000 C   0  0  0  0  0  0  0  0  0  0  0  0
    0.9249    2.5739    0.0000 C   0  0  0  0  0  0  0  0  0  0  0  0
    1.6394    2.1614    0.0000 C   0  0  0  0  0  0  0  0  0  0  0  0
    2.3539    2.5739    0.0000 N   0  0  0  0  0  0  0  0  0  0  0  0
    3.0683    2.1614    0.0000 C   0  0  0  0  0  0  0  0  0  0  0  0
    3.7828    2.5739    0.0000 C   0  0  0  0  0  0  0  0  0  0  0  0
    4.4973    2.1614    0.0000 C   0  0  0  0  0  0  0  0  0  0  0  0
    5.2118    2.5739    0.0000 N   0  0  0  0  0  0  0  0  0  0  0  0
   -1.6310    2.8759    0.0000 H   0  0  0  0  0  0  0  0  0  0  0  0
   -1.9329    1.7489    0.0000 H   0  0  0  0  0  0  0  0  0  0  0  0
   -0.8060    1.4470    0.0000 H   0  0  0  0  0  0  0  0  0  0  0  0
    0.3210    3.3989    0.0000 H   0  0  0  0  0  0  0  0  0  0  0  0
   -0.5040    4.2239    0.0000 H   0  0  0  0  0  0  0  0  0  0  0  0
   -1.3290    3.3989    0.0000 H   0  0  0  0  0  0  0  0  0  0  0  0
   -0.1598    1.4242    0.0000 H   0  0  0  0  0  0  0  0  0  0  0  0
    0.5807    1.4242    0.0000 H   0  0  0  0  0  0  0  0  0  0  0  0
    1.2952    3.3112    0.0000 H   0  0  0  0  0  0  0  0  0  0  0  0
    0.5547    3.3112    0.0000 H   0  0  0  0  0  0  0  0  0  0  0  0
    1.2691    1.4242    0.0000 H   0  0  0  0  0  0  0  0  0  0  0  0
    2.0097    1.4242    0.0000 H   0  0  0  0  0  0  0  0  0  0  0  0
    2.3539    3.3989    0.0000 H   0  0  0  0  0  0  0  0  0  0  0  0
    2.6981    1.4242    0.0000 H   0  0  0  0  0  0  0  0  0  0  0  0
    3.4386    1.4242    0.0000 H   0  0  0  0  0  0  0  0  0  0  0  0
    4.1531    3.3112    0.0000 H   0  0  0  0  0  0  0  0  0  0  0  0
    3.4126    3.3112    0.0000 H   0  0  0  0  0  0  0  0  0  0  0  0
    4.1270    1.4242    0.0000 H   0  0  0  0  0  0  0  0  0  0  0  0
    4.8675    1.4242    0.0000 H   0  0  0  0  0  0  0  0  0  0  0  0
    5.9262    2.1614    0.0000 H   0  0  0  0  0  0  0  0  0  0  0  0
    5.2118    3.3989    0.0000 H   0  0  0  0  0  0  0  0  0  0  0  0
  1  2  1  0  0  0  0
  2  3  1  0  0  0  0
  2  4  1  0  0  0  0
  4  5  1  0  0  0  0
  5  6  1  0  0  0  0
  6  7  1  0  0  0  0
  7  8  1  0  0  0  0
  8  9  1  0  0  0  0
  9 10  1  0  0  0  0
 10 11  1  0  0  0  0
  1 12  1  0  0  0  0
  1 13  1  0  0  0  0
  1 14  1  0  0  0  0
  3 15  1  0  0  0  0
  3 16  1  0  0  0  0
  3 17  1  0  0  0  0
  4 18  1  0  0  0  0
  4 19  1  0  0  0  0
  5 20  1  0  0  0  0
  5 21  1  0  0  0  0
  6 22  1  0  0  0  0
  6 23  1  0  0  0  0
  7 24  1  0  0  0  0
  8 25  1  0  0  0  0
  8 26  1  0  0  0  0
  9 27  1  0  0  0  0
  9 28  1  0  0  0  0
 10 29  1  0  0  0  0
 10 30  1  0  0  0  0
 11 31  1  0  0  0  0
 11 32  1  0  0  0  0
M  END
>  <id_input>
85

>  <InChIKey>
OMKZWUPRGQMQJC-UHFFFAOYSA-N

>  <substance_name>
(3-aminopropyl)[3-(dimethylamino)propyl]amine

>  <casrn>
10563-29-8

>  <Molecular weight>
159.27244567871094

>  <guideline>
OECD Guideline 404 (Acute Dermal Irritation / Corrosion)

>  <species>
rabbit

>  <type_of_coverage>
semiocclusive

>  <max_duration(hrs)>
4.0

>  <vehicle>
unchanged (no vehicle)

>  <edema/ erythema score>
2.66666666666666

>  <max_score>
4.0

>  <reversibility>
0.0

>  <Outcome>
1

>  <StandardizerResult>
Remove Explicit Hydrogens (ID: RemoveExplicitH)
Clear Stereo (ID: ClearStereo)
Wedge Clean (ID: WedgeClean)
Mesomerize (ID: Mesomerize)
Tautomerize (ID: Tautomerize)
Add Explicit Hydrogens (ID: AddExplicitH)
Neutralize (ID: Neutralize)
Clean 2D (ID: Clean2D)


$$$$

  Mrv1812 02121911042D          

 30 29  0  0  0  0            999 V2000
   -0.7259    0.2528    0.0000 C   0  0  0  0  0  0  0  0  0  0  0  0
   -0.0114    0.6653    0.0000 C   0  0  0  0  0  0  0  0  0  0  0  0
    0.4011   -0.0492    0.0000 C   0  0  0  0  0  0  0  0  0  0  0  0
   -0.4239    1.3797    0.0000 C   0  0  0  0  0  0  0  0  0  0  0  0
    0.7030    1.0778    0.0000 O   0  0  0  0  0  0  0  0  0  0  0  0
    0.7030    1.9028    0.0000 O   0  0  0  0  0  0  0  0  0  0  0  0
    1.4175    2.3153    0.0000 C   0  0  0  0  0  0  0  0  0  0  0  0
    2.1320    1.9028    0.0000 O   0  0  0  0  0  0  0  0  0  0  0  0
    1.4175    3.1403    0.0000 C   0  0  0  0  0  0  0  0  0  0  0  0
    1.4175    3.9653    0.0000 C   0  0  0  0  0  0  0  0  0  0  0  0
    2.2425    3.1403    0.0000 C   0  0  0  0  0  0  0  0  0  0  0  0
    0.5925    3.1403    0.0000 C   0  0  0  0  0  0  0  0  0  0  0  0
   -1.1384    0.9672    0.0000 H   0  0  0  0  0  0  0  0  0  0  0  0
   -1.4404   -0.1597    0.0000 H   0  0  0  0  0  0  0  0  0  0  0  0
   -0.3134   -0.4617    0.0000 H   0  0  0  0  0  0  0  0  0  0  0  0
    0.5087   -0.8671    0.0000 H   0  0  0  0  0  0  0  0  0  0  0  0
    1.1980   -0.2627    0.0000 H   0  0  0  0  0  0  0  0  0  0  0  0
    0.9033    0.6053    0.0000 H   0  0  0  0  0  0  0  0  0  0  0  0
    0.3940    1.4874    0.0000 H   0  0  0  0  0  0  0  0  0  0  0  0
   -0.2104    2.1766    0.0000 H   0  0  0  0  0  0  0  0  0  0  0  0
   -1.0785    1.8820    0.0000 H   0  0  0  0  0  0  0  0  0  0  0  0
    2.2425    3.9653    0.0000 H   0  0  0  0  0  0  0  0  0  0  0  0
    1.4175    4.7903    0.0000 H   0  0  0  0  0  0  0  0  0  0  0  0
    0.5925    3.9653    0.0000 H   0  0  0  0  0  0  0  0  0  0  0  0
    1.9268    2.3781    0.0000 H   0  0  0  0  0  0  0  0  0  0  0  0
    2.8259    2.5569    0.0000 H   0  0  0  0  0  0  0  0  0  0  0  0
    3.0047    3.4560    0.0000 H   0  0  0  0  0  0  0  0  0  0  0  0
   -0.1697    3.4560    0.0000 H   0  0  0  0  0  0  0  0  0  0  0  0
    0.0091    2.5569    0.0000 H   0  0  0  0  0  0  0  0  0  0  0  0
    0.9082    2.3781    0.0000 H   0  0  0  0  0  0  0  0  0  0  0  0
  1  2  1  0  0  0  0
  2  3  1  0  0  0  0
  2  4  1  0  0  0  0
  2  5  1  0  0  0  0
  5  6  1  0  0  0  0
  6  7  1  0  0  0  0
  7  8  2  0  0  0  0
  7  9  1  0  0  0  0
  9 10  1  0  0  0  0
  9 11  1  0  0  0  0
  9 12  1  0  0  0  0
  1 13  1  0  0  0  0
  1 14  1  0  0  0  0
  1 15  1  0  0  0  0
  3 16  1  0  0  0  0
  3 17  1  0  0  0  0
  3 18  1  0  0  0  0
  4 19  1  0  0  0  0
  4 20  1  0  0  0  0
  4 21  1  0  0  0  0
 10 22  1  0  0  0  0
 10 23  1  0  0  0  0
 10 24  1  0  0  0  0
 11 25  1  0  0  0  0
 11 26  1  0  0  0  0
 11 27  1  0  0  0  0
 12 28  1  0  0  0  0
 12 29  1  0  0  0  0
 12 30  1  0  0  0  0
M  END
>  <id_input>
4995

>  <InChIKey>
OPQYOFWUFGEMRZ-UHFFFAOYSA-N

>  <substance_name>
tert-butyl 2,2-dimethylpropaneperoxoate

>  <casrn>
927-07-1

>  <Molecular weight>
174.2374267578125

>  <guideline>
OECD Guideline 404 (Acute Dermal Irritation / Corrosion)

>  <species>
rabbit

>  <type_of_coverage>
semiocclusive

>  <max_duration(hrs)>
4.0

>  <vehicle>
unchanged (no vehicle)

>  <edema/ erythema score>
2.675

>  <max_score>
4.0

>  <reversibility>
0.0

>  <Outcome>
1

>  <StandardizerResult>
Remove Explicit Hydrogens (ID: RemoveExplicitH)
Clear Stereo (ID: ClearStereo)
Wedge Clean (ID: WedgeClean)
Mesomerize (ID: Mesomerize)
Tautomerize (ID: Tautomerize)
Add Explicit Hydrogens (ID: AddExplicitH)
Neutralize (ID: Neutralize)
Clean 2D (ID: Clean2D)


$$$$

  Mrv1812 02121911042D          

 26 25  0  0  0  0            999 V2000
    3.6402   -0.8717    0.0000 C   0  0  0  0  0  0  0  0  0  0  0  0
    2.9258   -1.2842    0.0000 O   0  0  0  0  0  0  0  0  0  0  0  0
    2.2113   -0.8717    0.0000 Si  0  0  0  0  0  4  0  0  0  0  0  0
    1.4968   -0.4592    0.0000 C   0  0  0  0  0  0  0  0  0  0  0  0
    0.7823   -0.8717    0.0000 C   0  0  0  0  0  0  0  0  0  0  0  0
    0.0679   -0.4592    0.0000 C   0  0  0  0  0  0  0  0  0  0  0  0
   -0.6466   -0.8717    0.0000 Cl  0  0  0  0  0  0  0  0  0  0  0  0
    2.6238   -0.1572    0.0000 O   0  0  0  0  0  0  0  0  0  0  0  0
    2.2113    0.5573    0.0000 C   0  0  0  0  0  0  0  0  0  0  0  0
    1.7988   -1.5861    0.0000 O   0  0  0  0  0  0  0  0  0  0  0  0
    0.9738   -1.5861    0.0000 C   0  0  0  0  0  0  0  0  0  0  0  0
    4.0527   -1.5861    0.0000 H   0  0  0  0  0  0  0  0  0  0  0  0
    4.3547   -0.4592    0.0000 H   0  0  0  0  0  0  0  0  0  0  0  0
    3.2277   -0.1572    0.0000 H   0  0  0  0  0  0  0  0  0  0  0  0
    1.8671    0.2781    0.0000 H   0  0  0  0  0  0  0  0  0  0  0  0
    1.1266    0.2781    0.0000 H   0  0  0  0  0  0  0  0  0  0  0  0
    0.1278   -1.3739    0.0000 H   0  0  0  0  0  0  0  0  0  0  0  0
    1.5446   -1.1874    0.0000 H   0  0  0  0  0  0  0  0  0  0  0  0
    0.4381    0.2781    0.0000 H   0  0  0  0  0  0  0  0  0  0  0  0
   -0.3024    0.2781    0.0000 H   0  0  0  0  0  0  0  0  0  0  0  0
    3.0243    0.6972    0.0000 H   0  0  0  0  0  0  0  0  0  0  0  0
    2.3613    1.3685    0.0000 H   0  0  0  0  0  0  0  0  0  0  0  0
    1.5020    0.9787    0.0000 H   0  0  0  0  0  0  0  0  0  0  0  0
    0.2934   -2.0527    0.0000 H   0  0  0  0  0  0  0  0  0  0  0  0
    0.8726   -2.4049    0.0000 H   0  0  0  0  0  0  0  0  0  0  0  0
    1.5202   -2.2042    0.0000 H   0  0  0  0  0  0  0  0  0  0  0  0
  1  2  1  0  0  0  0
  2  3  1  0  0  0  0
  3  4  1  0  0  0  0
  4  5  1  0  0  0  0
  5  6  1  0  0  0  0
  6  7  1  0  0  0  0
  3  8  1  0  0  0  0
  8  9  1  0  0  0  0
  3 10  1  0  0  0  0
 10 11  1  0  0  0  0
  1 12  1  0  0  0  0
  1 13  1  0  0  0  0
  1 14  1  0  0  0  0
  4 15  1  0  0  0  0
  4 16  1  0  0  0  0
  5 17  1  0  0  0  0
  5 18  1  0  0  0  0
  6 19  1  0  0  0  0
  6 20  1  0  0  0  0
  9 21  1  0  0  0  0
  9 22  1  0  0  0  0
  9 23  1  0  0  0  0
 11 24  1  0  0  0  0
 11 25  1  0  0  0  0
 11 26  1  0  0  0  0
M  END
>  <id_input>
91

>  <InChIKey>
OXYZDRAJMHGSMW-UHFFFAOYSA-N

>  <substance_name>
(3-chloropropyl)trimethoxysilane

>  <casrn>
2530-87-2

>  <Molecular weight>
198.72000122070312

>  <guideline>
OECD Guideline 404 (Acute Dermal Irritation / Corrosion)

>  <species>
rabbit

>  <type_of_coverage>
semiocclusive

>  <max_duration(hrs)>
4.0

>  <vehicle>
unchanged (no vehicle)

>  <edema/ erythema score>
1.84

>  <max_score>
2.0

>  <reversibility>
0.0

>  <Outcome>
1

>  <StandardizerResult>
Remove Explicit Hydrogens (ID: RemoveExplicitH)
Clear Stereo (ID: ClearStereo)
Wedge Clean (ID: WedgeClean)
Mesomerize (ID: Mesomerize)
Tautomerize (ID: Tautomerize)
Add Explicit Hydrogens (ID: AddExplicitH)
Neutralize (ID: Neutralize)
Clean 2D (ID: Clean2D)


$$$$

  Mrv1812 02121911042D          

 39 41  0  0  0  0            999 V2000
    0.1787    2.6324    0.0000 C   0  0  0  0  0  0  0  0  0  0  0  0
   -0.1831    1.8910    0.0000 C   0  0  0  0  0  0  0  0  0  0  0  0
   -0.8234    2.4112    0.0000 C   0  0  0  0  0  0  0  0  0  0  0  0
    0.6333    1.7036    0.0000 C   0  0  0  0  0  0  0  0  0  0  0  0
    1.0761    0.9810    0.0000 C   0  0  0  0  0  0  0  0  0  0  0  0
    0.7886    0.1818    0.0000 C   0  0  0  0  0  0  0  0  0  0  0  0
   -0.0375    0.0068    0.0000 C   0  0  0  0  0  0  0  0  0  0  0  0
   -0.6745   -0.5174    0.0000 C   0  0  0  0  0  0  0  0  0  0  0  0
   -0.7807    0.3527    0.0000 C   0  0  0  0  0  0  0  0  0  0  0  0
   -1.5857    0.4064    0.0000 C   0  0  0  0  0  0  0  0  0  0  0  0
   -1.4441    1.2499    0.0000 C   0  0  0  0  0  0  0  0  0  0  0  0
   -0.3641    1.2586    0.0000 C   0  0  0  0  0  0  0  0  0  0  0  0
   -0.8725    1.3558    0.0000 C   0  0  0  0  0  0  0  0  0  0  0  0
    0.2821    0.7573    0.0000 C   0  0  0  0  0  0  0  0  0  0  0  0
    0.8061    1.3945    0.0000 C   0  0  0  0  0  0  0  0  0  0  0  0
    0.9201    2.2707    0.0000 H   0  0  0  0  0  0  0  0  0  0  0  0
    0.5405    3.3739    0.0000 H   0  0  0  0  0  0  0  0  0  0  0  0
   -0.5628    2.9942    0.0000 H   0  0  0  0  0  0  0  0  0  0  0  0
   -1.3499    3.0463    0.0000 H   0  0  0  0  0  0  0  0  0  0  0  0
   -1.6259    2.2199    0.0000 H   0  0  0  0  0  0  0  0  0  0  0  0
   -1.0068    1.6069    0.0000 H   0  0  0  0  0  0  0  0  0  0  0  0
    1.4576    1.7372    0.0000 H   0  0  0  0  0  0  0  0  0  0  0  0
    0.1384    1.0436    0.0000 H   0  0  0  0  0  0  0  0  0  0  0  0
    1.5827    0.3298    0.0000 H   0  0  0  0  0  0  0  0  0  0  0  0
    1.8973    1.0609    0.0000 H   0  0  0  0  0  0  0  0  0  0  0  0
    0.5267   -0.6005    0.0000 H   0  0  0  0  0  0  0  0  0  0  0  0
    1.3301   -0.4406    0.0000 H   0  0  0  0  0  0  0  0  0  0  0  0
   -1.4926   -0.4108    0.0000 H   0  0  0  0  0  0  0  0  0  0  0  0
   -0.9809   -1.2834    0.0000 H   0  0  0  0  0  0  0  0  0  0  0  0
   -0.0086   -1.0043    0.0000 H   0  0  0  0  0  0  0  0  0  0  0  0
   -0.1060    0.8275    0.0000 H   0  0  0  0  0  0  0  0  0  0  0  0
   -2.3434    0.7326    0.0000 H   0  0  0  0  0  0  0  0  0  0  0  0
   -2.3596    0.1206    0.0000 H   0  0  0  0  0  0  0  0  0  0  0  0
   -1.9204    1.9235    0.0000 H   0  0  0  0  0  0  0  0  0  0  0  0
   -2.2652    1.3299    0.0000 H   0  0  0  0  0  0  0  0  0  0  0  0
   -0.7680    0.5393    0.0000 H   0  0  0  0  0  0  0  0  0  0  0  0
   -0.7007    2.1627    0.0000 H   0  0  0  0  0  0  0  0  0  0  0  0
    0.5892    0.5985    0.0000 H   0  0  0  0  0  0  0  0  0  0  0  0
    0.9345    0.5795    0.0000 H   0  0  0  0  0  0  0  0  0  0  0  0
  1  2  1  0  0  0  0
  2  3  1  0  0  0  0
  4  2  1  0  0  0  0
  5  4  1  0  0  0  0
  6  5  1  0  0  0  0
  7  6  1  0  0  0  0
  7  8  1  0  0  0  0
  7  9  1  0  0  0  0
  9 10  1  0  0  0  0
 10 11  1  0  0  0  0
 11 12  1  0  0  0  0
 12 13  1  0  0  0  0
 12 14  1  0  0  0  0
 14 15  2  0  0  0  0
  2 13  1  0  0  0  0
 14  7  1  0  0  0  0
 13  9  1  0  0  0  0
  1 16  1  0  0  0  0
  1 17  1  0  0  0  0
  1 18  1  0  0  0  0
  3 19  1  0  0  0  0
  3 20  1  0  0  0  0
  3 21  1  0  0  0  0
  4 22  1  0  0  0  0
  4 23  1  0  0  0  0
  5 24  1  0  0  0  0
  5 25  1  0  0  0  0
  6 26  1  0  0  0  0
  6 27  1  0  0  0  0
  8 28  1  0  0  0  0
  8 29  1  0  0  0  0
  8 30  1  0  0  0  0
  9 31  1  0  0  0  0
 10 32  1  0  0  0  0
 10 33  1  0  0  0  0
 11 34  1  0  0  0  0
 11 35  1  0  0  0  0
 12 36  1  0  0  0  0
 13 37  1  0  0  0  0
 15 38  1  0  0  0  0
 15 39  1  0  0  0  0
M  END
>  <id_input>
3810

>  <InChIKey>
PDSNLYSELAIEBU-UHFFFAOYSA-N

>  <substance_name>
[1S-(1????,3a????,4????,8a????)]-decahydro-4,8,8-trimethyl-9-methylene-1,4-methanoazulene

>  <casrn>
475-20-7

>  <Molecular weight>
204.35105895996094

>  <guideline>
OECD Guideline 404 (Acute Dermal Irritation / Corrosion)

>  <species>
rabbit

>  <type_of_coverage>
semiocclusive

>  <max_duration(hrs)>
4.0

>  <vehicle>
unchanged (no vehicle)

>  <edema/ erythema score>
2.11333333333333

>  <max_score>
4.0

>  <reversibility>
0.0

>  <Outcome>
1

>  <StandardizerResult>
Remove Explicit Hydrogens (ID: RemoveExplicitH)
Clear Stereo (ID: ClearStereo)
Wedge Clean (ID: WedgeClean)
Mesomerize (ID: Mesomerize)
Tautomerize (ID: Tautomerize)
Add Explicit Hydrogens (ID: AddExplicitH)
Neutralize (ID: Neutralize)
Clean 2D (ID: Clean2D)


$$$$

  Mrv1812 02121911042D          

 26 25  0  0  0  0            999 V2000
   -0.0549    0.0529    0.0000 C   0  0  0  0  0  0  0  0  0  0  0  0
    0.6596    0.4654    0.0000 C   0  0  0  0  0  0  0  0  0  0  0  0
    1.3741    0.0529    0.0000 C   0  0  0  0  0  0  0  0  0  0  0  0
    2.0885    0.4654    0.0000 C   0  0  0  0  0  0  0  0  0  0  0  0
    2.8030    0.0529    0.0000 C   0  0  0  0  0  0  0  0  0  0  0  0
    3.5175    0.4654    0.0000 C   0  0  0  0  0  0  0  0  0  0  0  0
    4.2319    0.0529    0.0000 O   0  0  0  0  0  0  0  0  0  0  0  0
    4.9464    0.4654    0.0000 P   0  0  0  0  0  0  0  0  0  0  0  0
    5.6609    0.8779    0.0000 O   0  0  0  0  0  0  0  0  0  0  0  0
    5.3589   -0.2490    0.0000 O   0  0  0  0  0  0  0  0  0  0  0  0
    4.5339    1.1799    0.0000 O   0  0  0  0  0  0  0  0  0  0  0  0
   -0.4674    0.7674    0.0000 H   0  0  0  0  0  0  0  0  0  0  0  0
   -0.7694   -0.3596    0.0000 H   0  0  0  0  0  0  0  0  0  0  0  0
    0.3576   -0.6615    0.0000 H   0  0  0  0  0  0  0  0  0  0  0  0
    1.0299    1.2027    0.0000 H   0  0  0  0  0  0  0  0  0  0  0  0
    0.2893    1.2027    0.0000 H   0  0  0  0  0  0  0  0  0  0  0  0
    1.0038   -0.6843    0.0000 H   0  0  0  0  0  0  0  0  0  0  0  0
    1.7443   -0.6843    0.0000 H   0  0  0  0  0  0  0  0  0  0  0  0
    2.4588    1.2027    0.0000 H   0  0  0  0  0  0  0  0  0  0  0  0
    1.7183    1.2027    0.0000 H   0  0  0  0  0  0  0  0  0  0  0  0
    2.4327   -0.6843    0.0000 H   0  0  0  0  0  0  0  0  0  0  0  0
    3.1733   -0.6843    0.0000 H   0  0  0  0  0  0  0  0  0  0  0  0
    3.8877    1.2027    0.0000 H   0  0  0  0  0  0  0  0  0  0  0  0
    3.1472    1.2027    0.0000 H   0  0  0  0  0  0  0  0  0  0  0  0
    6.3754    0.4654    0.0000 H   0  0  0  0  0  0  0  0  0  0  0  0
    4.9464   -0.9635    0.0000 H   0  0  0  0  0  0  0  0  0  0  0  0
  1  2  1  0  0  0  0
  2  3  1  0  0  0  0
  3  4  1  0  0  0  0
  4  5  1  0  0  0  0
  5  6  1  0  0  0  0
  6  7  1  0  0  0  0
  7  8  1  0  0  0  0
  8  9  1  0  0  0  0
  8 10  1  0  0  0  0
  8 11  2  0  0  0  0
  1 12  1  0  0  0  0
  1 13  1  0  0  0  0
  1 14  1  0  0  0  0
  2 15  1  0  0  0  0
  2 16  1  0  0  0  0
  3 17  1  0  0  0  0
  3 18  1  0  0  0  0
  4 19  1  0  0  0  0
  4 20  1  0  0  0  0
  5 21  1  0  0  0  0
  5 22  1  0  0  0  0
  6 23  1  0  0  0  0
  6 24  1  0  0  0  0
  9 25  1  0  0  0  0
 10 26  1  0  0  0  0
M  END
>  <id_input>
806

>  <InChIKey>
PHNWGDTYCJFUGZ-UHFFFAOYSA-N

>  <substance_name>
-

>  <casrn>
68307-94-8

>  <Molecular weight>
182.1546630859375

>  <guideline>
OECD Guideline 404 (Acute Dermal Irritation / Corrosion)

>  <species>
rabbit

>  <type_of_coverage>
semiocclusive

>  <max_duration(hrs)>
4.0

>  <vehicle>
unchanged (no vehicle)

>  <edema/ erythema score>
2.67

>  <max_score>
4.0

>  <reversibility>
0.0

>  <Outcome>
1

>  <StandardizerResult>
Remove Explicit Hydrogens (ID: RemoveExplicitH)
Clear Stereo (ID: ClearStereo)
Wedge Clean (ID: WedgeClean)
Mesomerize (ID: Mesomerize)
Tautomerize (ID: Tautomerize)
Add Explicit Hydrogens (ID: AddExplicitH)
Neutralize (ID: Neutralize)
Clean 2D (ID: Clean2D)


$$$$

  Mrv1812 02121911042D          

 65 66  0  0  0  0            999 V2000
    1.4621    2.2432    0.0000 C   0  0  0  0  0  0  0  0  0  0  0  0
    1.4621    3.0682    0.0000 C   0  0  0  0  0  0  0  0  0  0  0  0
    2.1765    3.4807    0.0000 C   0  0  0  0  0  0  0  0  0  0  0  0
    2.8910    3.0682    0.0000 C   0  0  0  0  0  0  0  0  0  0  0  0
    0.7476    3.4807    0.0000 N   0  0  0  0  0  0  0  0  0  0  0  0
    0.0331    3.0682    0.0000 C   0  0  0  0  0  0  0  0  0  0  0  0
   -0.6813    3.4807    0.0000 C   0  0  0  0  0  0  0  0  0  0  0  0
   -1.3958    3.0682    0.0000 C   0  0  0  0  0  0  0  0  0  0  0  0
   -1.3958    2.2432    0.0000 C   0  0  0  0  0  0  0  0  0  0  0  0
   -0.6813    1.8307    0.0000 C   0  0  0  0  0  0  0  0  0  0  0  0
    0.0331    2.2432    0.0000 C   0  0  0  0  0  0  0  0  0  0  0  0
   -2.1103    1.8307    0.0000 C   0  0  0  0  0  0  0  0  0  0  0  0
   -2.1103    1.0057    0.0000 C   0  0  0  0  0  0  0  0  0  0  0  0
   -2.8248    0.5932    0.0000 C   0  0  0  0  0  0  0  0  0  0  0  0
   -2.8248   -0.2318    0.0000 C   0  0  0  0  0  0  0  0  0  0  0  0
   -2.1103   -0.6443    0.0000 C   0  0  0  0  0  0  0  0  0  0  0  0
   -2.1103   -1.4693    0.0000 N   0  0  0  0  0  0  0  0  0  0  0  0
   -1.3958   -1.8818    0.0000 C   0  0  0  0  0  0  0  0  0  0  0  0
   -0.6813   -1.4693    0.0000 C   0  0  0  0  0  0  0  0  0  0  0  0
   -1.3958   -2.7068    0.0000 C   0  0  0  0  0  0  0  0  0  0  0  0
   -2.1103   -3.1193    0.0000 C   0  0  0  0  0  0  0  0  0  0  0  0
   -1.3958   -0.2318    0.0000 C   0  0  0  0  0  0  0  0  0  0  0  0
   -1.3958    0.5932    0.0000 C   0  0  0  0  0  0  0  0  0  0  0  0
    0.6371    2.2432    0.0000 H   0  0  0  0  0  0  0  0  0  0  0  0
    1.4621    1.4182    0.0000 H   0  0  0  0  0  0  0  0  0  0  0  0
    2.2871    2.2432    0.0000 H   0  0  0  0  0  0  0  0  0  0  0  0
    2.1765    2.6557    0.0000 H   0  0  0  0  0  0  0  0  0  0  0  0
    2.5468    4.2179    0.0000 H   0  0  0  0  0  0  0  0  0  0  0  0
    1.8063    4.2179    0.0000 H   0  0  0  0  0  0  0  0  0  0  0  0
    3.1045    2.2713    0.0000 H   0  0  0  0  0  0  0  0  0  0  0  0
    3.7160    3.0682    0.0000 H   0  0  0  0  0  0  0  0  0  0  0  0
    3.1045    3.8650    0.0000 H   0  0  0  0  0  0  0  0  0  0  0  0
    0.7476    4.3057    0.0000 H   0  0  0  0  0  0  0  0  0  0  0  0
    0.0331    3.8932    0.0000 H   0  0  0  0  0  0  0  0  0  0  0  0
   -0.8246    4.2931    0.0000 H   0  0  0  0  0  0  0  0  0  0  0  0
   -1.3133    4.0110    0.0000 H   0  0  0  0  0  0  0  0  0  0  0  0
   -2.1549    3.3912    0.0000 H   0  0  0  0  0  0  0  0  0  0  0  0
   -2.1802    2.8125    0.0000 H   0  0  0  0  0  0  0  0  0  0  0  0
   -0.6813    2.6557    0.0000 H   0  0  0  0  0  0  0  0  0  0  0  0
   -1.0516    1.0934    0.0000 H   0  0  0  0  0  0  0  0  0  0  0  0
   -0.3111    1.0934    0.0000 H   0  0  0  0  0  0  0  0  0  0  0  0
   -0.1101    1.4307    0.0000 H   0  0  0  0  0  0  0  0  0  0  0  0
    0.5634    1.6112    0.0000 H   0  0  0  0  0  0  0  0  0  0  0  0
   -2.5636    2.5199    0.0000 H   0  0  0  0  0  0  0  0  0  0  0  0
   -2.9339    1.8786    0.0000 H   0  0  0  0  0  0  0  0  0  0  0  0
   -2.8248    1.4182    0.0000 H   0  0  0  0  0  0  0  0  0  0  0  0
   -3.6000    0.8753    0.0000 H   0  0  0  0  0  0  0  0  0  0  0  0
   -3.6000    0.3110    0.0000 H   0  0  0  0  0  0  0  0  0  0  0  0
   -3.4841   -0.7277    0.0000 H   0  0  0  0  0  0  0  0  0  0  0  0
   -2.9955   -1.0390    0.0000 H   0  0  0  0  0  0  0  0  0  0  0  0
   -1.3958   -1.0568    0.0000 H   0  0  0  0  0  0  0  0  0  0  0  0
   -2.8248   -1.8818    0.0000 H   0  0  0  0  0  0  0  0  0  0  0  0
   -0.6813   -2.2943    0.0000 H   0  0  0  0  0  0  0  0  0  0  0  0
    0.0331   -1.8818    0.0000 H   0  0  0  0  0  0  0  0  0  0  0  0
    0.0331   -1.0568    0.0000 H   0  0  0  0  0  0  0  0  0  0  0  0
   -0.6813   -0.6443    0.0000 H   0  0  0  0  0  0  0  0  0  0  0  0
   -1.2526   -3.5193    0.0000 H   0  0  0  0  0  0  0  0  0  0  0  0
   -0.7638   -3.2371    0.0000 H   0  0  0  0  0  0  0  0  0  0  0  0
   -2.3411   -2.3273    0.0000 H   0  0  0  0  0  0  0  0  0  0  0  0
   -2.9345   -3.1553    0.0000 H   0  0  0  0  0  0  0  0  0  0  0  0
   -2.2712   -3.9285    0.0000 H   0  0  0  0  0  0  0  0  0  0  0  0
   -2.1103    0.1807    0.0000 H   0  0  0  0  0  0  0  0  0  0  0  0
   -0.6813    0.1807    0.0000 H   0  0  0  0  0  0  0  0  0  0  0  0
   -0.5911    0.7750    0.0000 H   0  0  0  0  0  0  0  0  0  0  0  0
   -1.5777    1.3979    0.0000 H   0  0  0  0  0  0  0  0  0  0  0  0
  1  2  1  0  0  0  0
  2  3  1  0  0  0  0
  3  4  1  0  0  0  0
  2  5  1  0  0  0  0
  5  6  1  0  0  0  0
  7  6  1  0  0  0  0
  8  7  1  0  0  0  0
  9  8  1  0  0  0  0
 10  9  1  0  0  0  0
 11 10  1  0  0  0  0
  9 12  1  0  0  0  0
 12 13  1  0  0  0  0
 14 13  1  0  0  0  0
 15 14  1  0  0  0  0
 16 15  1  0  0  0  0
 16 17  1  0  0  0  0
 17 18  1  0  0  0  0
 18 19  1  0  0  0  0
 18 20  1  0  0  0  0
 20 21  1  0  0  0  0
 22 16  1  0  0  0  0
 23 22  1  0  0  0  0
  6 11  1  0  0  0  0
 13 23  1  0  0  0  0
  1 24  1  0  0  0  0
  1 25  1  0  0  0  0
  1 26  1  0  0  0  0
  2 27  1  0  0  0  0
  3 28  1  0  0  0  0
  3 29  1  0  0  0  0
  4 30  1  0  0  0  0
  4 31  1  0  0  0  0
  4 32  1  0  0  0  0
  5 33  1  0  0  0  0
  6 34  1  0  0  0  0
  7 35  1  0  0  0  0
  7 36  1  0  0  0  0
  8 37  1  0  0  0  0
  8 38  1  0  0  0  0
  9 39  1  0  0  0  0
 10 40  1  0  0  0  0
 10 41  1  0  0  0  0
 11 42  1  0  0  0  0
 11 43  1  0  0  0  0
 12 44  1  0  0  0  0
 12 45  1  0  0  0  0
 13 46  1  0  0  0  0
 14 47  1  0  0  0  0
 14 48  1  0  0  0  0
 15 49  1  0  0  0  0
 15 50  1  0  0  0  0
 16 51  1  0  0  0  0
 17 52  1  0  0  0  0
 18 53  1  0  0  0  0
 19 54  1  0  0  0  0
 19 55  1  0  0  0  0
 19 56  1  0  0  0  0
 20 57  1  0  0  0  0
 20 58  1  0  0  0  0
 21 59  1  0  0  0  0
 21 60  1  0  0  0  0
 21 61  1  0  0  0  0
 22 62  1  0  0  0  0
 22 63  1  0  0  0  0
 23 64  1  0  0  0  0
 23 65  1  0  0  0  0
M  END
>  <id_input>
633

>  <InChIKey>
PICLBAFTFYTURY-UHFFFAOYSA-N

>  <substance_name>
-

>  <casrn>
154279-60-4

>  <Molecular weight>
322.57159423828125

>  <guideline>
OECD Guideline 404 (Acute Dermal Irritation / Corrosion)

>  <species>
rabbit

>  <type_of_coverage>
semiocclusive

>  <max_duration(hrs)>
4.0

>  <vehicle>
unchanged (no vehicle)

>  <edema/ erythema score>
2.36666666666666

>  <max_score>
4.0

>  <reversibility>
1.0

>  <Outcome>
1

>  <StandardizerResult>
Remove Explicit Hydrogens (ID: RemoveExplicitH)
Clear Stereo (ID: ClearStereo)
Wedge Clean (ID: WedgeClean)
Mesomerize (ID: Mesomerize)
Tautomerize (ID: Tautomerize)
Add Explicit Hydrogens (ID: AddExplicitH)
Neutralize (ID: Neutralize)
Clean 2D (ID: Clean2D)


$$$$

  Mrv1812 02121911042D          

 74 73  0  0  0  0            999 V2000
   -1.6614   -2.1805    0.0000 C   0  0  0  0  0  0  0  0  0  0  0  0
   -0.9469   -2.5930    0.0000 C   0  0  0  0  0  0  0  0  0  0  0  0
   -0.2324   -2.1805    0.0000 C   0  0  0  0  0  0  0  0  0  0  0  0
    0.4820   -2.5930    0.0000 C   0  0  0  0  0  0  0  0  0  0  0  0
    1.1965   -2.1805    0.0000 C   0  0  0  0  0  0  0  0  0  0  0  0
    1.9110   -2.5930    0.0000 C   0  0  0  0  0  0  0  0  0  0  0  0
    2.6254   -2.1805    0.0000 C   0  0  0  0  0  0  0  0  0  0  0  0
    2.6254   -1.3555    0.0000 O   0  0  0  0  0  0  0  0  0  0  0  0
    3.3399   -2.5930    0.0000 O   0  0  0  0  0  0  0  0  0  0  0  0
    4.0544   -2.1805    0.0000 C   0  0  0  0  0  0  0  0  0  0  0  0
    4.7688   -2.5930    0.0000 C   0  0  0  0  0  0  0  0  0  0  0  0
    5.4833   -2.1805    0.0000 C   0  0  0  0  0  0  0  0  0  0  0  0
    6.1978   -2.5930    0.0000 O   0  0  0  0  0  0  0  0  0  0  0  0
    6.9123   -2.1805    0.0000 C   0  0  0  0  0  0  0  0  0  0  0  0
    6.9123   -1.3555    0.0000 O   0  0  0  0  0  0  0  0  0  0  0  0
    7.6267   -2.5930    0.0000 C   0  0  0  0  0  0  0  0  0  0  0  0
    8.3412   -2.1805    0.0000 C   0  0  0  0  0  0  0  0  0  0  0  0
    9.0557   -2.5930    0.0000 C   0  0  0  0  0  0  0  0  0  0  0  0
    9.7701   -2.1805    0.0000 C   0  0  0  0  0  0  0  0  0  0  0  0
   10.4846   -2.5930    0.0000 C   0  0  0  0  0  0  0  0  0  0  0  0
   11.1991   -2.1805    0.0000 C   0  0  0  0  0  0  0  0  0  0  0  0
    4.7688   -3.4180    0.0000 O   0  0  0  0  0  0  0  0  0  0  0  0
    4.0544   -3.8305    0.0000 C   0  0  0  0  0  0  0  0  0  0  0  0
    3.3399   -3.4180    0.0000 O   0  0  0  0  0  0  0  0  0  0  0  0
    4.0544   -4.6555    0.0000 C   0  0  0  0  0  0  0  0  0  0  0  0
    3.3399   -5.0680    0.0000 C   0  0  0  0  0  0  0  0  0  0  0  0
    3.3399   -5.8930    0.0000 C   0  0  0  0  0  0  0  0  0  0  0  0
    2.6254   -6.3055    0.0000 C   0  0  0  0  0  0  0  0  0  0  0  0
    2.6254   -7.1305    0.0000 C   0  0  0  0  0  0  0  0  0  0  0  0
    1.9110   -7.5430    0.0000 C   0  0  0  0  0  0  0  0  0  0  0  0
   -1.2489   -1.4660    0.0000 H   0  0  0  0  0  0  0  0  0  0  0  0
   -2.3759   -1.7680    0.0000 H   0  0  0  0  0  0  0  0  0  0  0  0
   -2.0739   -2.8950    0.0000 H   0  0  0  0  0  0  0  0  0  0  0  0
   -1.3172   -3.3302    0.0000 H   0  0  0  0  0  0  0  0  0  0  0  0
   -0.5767   -3.3302    0.0000 H   0  0  0  0  0  0  0  0  0  0  0  0
    0.1378   -1.4433    0.0000 H   0  0  0  0  0  0  0  0  0  0  0  0
   -0.6027   -1.4433    0.0000 H   0  0  0  0  0  0  0  0  0  0  0  0
    0.1118   -3.3302    0.0000 H   0  0  0  0  0  0  0  0  0  0  0  0
    0.8523   -3.3302    0.0000 H   0  0  0  0  0  0  0  0  0  0  0  0
    1.5668   -1.4433    0.0000 H   0  0  0  0  0  0  0  0  0  0  0  0
    0.8262   -1.4433    0.0000 H   0  0  0  0  0  0  0  0  0  0  0  0
    1.5407   -3.3302    0.0000 H   0  0  0  0  0  0  0  0  0  0  0  0
    2.2812   -3.3302    0.0000 H   0  0  0  0  0  0  0  0  0  0  0  0
    4.4246   -1.4433    0.0000 H   0  0  0  0  0  0  0  0  0  0  0  0
    3.6841   -1.4433    0.0000 H   0  0  0  0  0  0  0  0  0  0  0  0
    4.7688   -1.7680    0.0000 H   0  0  0  0  0  0  0  0  0  0  0  0
    6.1153   -1.6502    0.0000 H   0  0  0  0  0  0  0  0  0  0  0  0
    5.6266   -1.3680    0.0000 H   0  0  0  0  0  0  0  0  0  0  0  0
    7.2565   -3.3302    0.0000 H   0  0  0  0  0  0  0  0  0  0  0  0
    7.9970   -3.3302    0.0000 H   0  0  0  0  0  0  0  0  0  0  0  0
    8.7115   -1.4433    0.0000 H   0  0  0  0  0  0  0  0  0  0  0  0
    7.9709   -1.4433    0.0000 H   0  0  0  0  0  0  0  0  0  0  0  0
    8.6854   -3.3302    0.0000 H   0  0  0  0  0  0  0  0  0  0  0  0
    9.4259   -3.3302    0.0000 H   0  0  0  0  0  0  0  0  0  0  0  0
   10.1404   -1.4433    0.0000 H   0  0  0  0  0  0  0  0  0  0  0  0
    9.3999   -1.4433    0.0000 H   0  0  0  0  0  0  0  0  0  0  0  0
   10.1144   -3.3302    0.0000 H   0  0  0  0  0  0  0  0  0  0  0  0
   10.8549   -3.3302    0.0000 H   0  0  0  0  0  0  0  0  0  0  0  0
   11.6116   -2.8950    0.0000 H   0  0  0  0  0  0  0  0  0  0  0  0
   11.9136   -1.7680    0.0000 H   0  0  0  0  0  0  0  0  0  0  0  0
   10.7866   -1.4660    0.0000 H   0  0  0  0  0  0  0  0  0  0  0  0
    4.5077   -5.3448    0.0000 H   0  0  0  0  0  0  0  0  0  0  0  0
    4.8780   -4.7035    0.0000 H   0  0  0  0  0  0  0  0  0  0  0  0
    2.8866   -4.3787    0.0000 H   0  0  0  0  0  0  0  0  0  0  0  0
    2.5163   -5.0200    0.0000 H   0  0  0  0  0  0  0  0  0  0  0  0
    3.7933   -6.5823    0.0000 H   0  0  0  0  0  0  0  0  0  0  0  0
    4.1635   -5.9410    0.0000 H   0  0  0  0  0  0  0  0  0  0  0  0
    2.1721   -5.6162    0.0000 H   0  0  0  0  0  0  0  0  0  0  0  0
    1.8018   -6.2575    0.0000 H   0  0  0  0  0  0  0  0  0  0  0  0
    3.0788   -7.8198    0.0000 H   0  0  0  0  0  0  0  0  0  0  0  0
    3.4490   -7.1785    0.0000 H   0  0  0  0  0  0  0  0  0  0  0  0
    1.4985   -6.8285    0.0000 H   0  0  0  0  0  0  0  0  0  0  0  0
    1.1965   -7.9555    0.0000 H   0  0  0  0  0  0  0  0  0  0  0  0
    2.3235   -8.2575    0.0000 H   0  0  0  0  0  0  0  0  0  0  0  0
  1  2  1  0  0  0  0
  2  3  1  0  0  0  0
  3  4  1  0  0  0  0
  4  5  1  0  0  0  0
  5  6  1  0  0  0  0
  6  7  1  0  0  0  0
  7  8  2  0  0  0  0
  7  9  1  0  0  0  0
  9 10  1  0  0  0  0
 10 11  1  0  0  0  0
 11 12  1  0  0  0  0
 12 13  1  0  0  0  0
 13 14  1  0  0  0  0
 14 15  2  0  0  0  0
 14 16  1  0  0  0  0
 16 17  1  0  0  0  0
 17 18  1  0  0  0  0
 18 19  1  0  0  0  0
 19 20  1  0  0  0  0
 20 21  1  0  0  0  0
 11 22  1  0  0  0  0
 22 23  1  0  0  0  0
 23 24  2  0  0  0  0
 23 25  1  0  0  0  0
 25 26  1  0  0  0  0
 26 27  1  0  0  0  0
 27 28  1  0  0  0  0
 28 29  1  0  0  0  0
 29 30  1  0  0  0  0
  1 31  1  0  0  0  0
  1 32  1  0  0  0  0
  1 33  1  0  0  0  0
  2 34  1  0  0  0  0
  2 35  1  0  0  0  0
  3 36  1  0  0  0  0
  3 37  1  0  0  0  0
  4 38  1  0  0  0  0
  4 39  1  0  0  0  0
  5 40  1  0  0  0  0
  5 41  1  0  0  0  0
  6 42  1  0  0  0  0
  6 43  1  0  0  0  0
 10 44  1  0  0  0  0
 10 45  1  0  0  0  0
 11 46  1  0  0  0  0
 12 47  1  0  0  0  0
 12 48  1  0  0  0  0
 16 49  1  0  0  0  0
 16 50  1  0  0  0  0
 17 51  1  0  0  0  0
 17 52  1  0  0  0  0
 18 53  1  0  0  0  0
 18 54  1  0  0  0  0
 19 55  1  0  0  0  0
 19 56  1  0  0  0  0
 20 57  1  0  0  0  0
 20 58  1  0  0  0  0
 21 59  1  0  0  0  0
 21 60  1  0  0  0  0
 21 61  1  0  0  0  0
 25 62  1  0  0  0  0
 25 63  1  0  0  0  0
 26 64  1  0  0  0  0
 26 65  1  0  0  0  0
 27 66  1  0  0  0  0
 27 67  1  0  0  0  0
 28 68  1  0  0  0  0
 28 69  1  0  0  0  0
 29 70  1  0  0  0  0
 29 71  1  0  0  0  0
 30 72  1  0  0  0  0
 30 73  1  0  0  0  0
 30 74  1  0  0  0  0
M  END
>  <id_input>
1760

>  <InChIKey>
PJHKBYALYHRYSK-UHFFFAOYSA-N

>  <substance_name>
1,3-bis(heptanoyloxy)propan-2-yl heptanoate

>  <casrn>
620-67-7

>  <Molecular weight>
428.6025695800781

>  <guideline>
OECD Guideline 404 (Acute Dermal Irritation / Corrosion)

>  <species>
rabbit

>  <type_of_coverage>
semiocclusive

>  <max_duration(hrs)>
4.0

>  <vehicle>
unchanged (no vehicle)

>  <edema/ erythema score>
2.22

>  <max_score>
4.0

>  <reversibility>
0.0

>  <Outcome>
1

>  <StandardizerResult>
Remove Explicit Hydrogens (ID: RemoveExplicitH)
Clear Stereo (ID: ClearStereo)
Wedge Clean (ID: WedgeClean)
Mesomerize (ID: Mesomerize)
Tautomerize (ID: Tautomerize)
Add Explicit Hydrogens (ID: AddExplicitH)
Neutralize (ID: Neutralize)
Clean 2D (ID: Clean2D)


$$$$

  Mrv1812 02121911042D          

 25 24  0  0  0  0            999 V2000
    2.6613   -1.6653    0.0000 C   0  0  0  0  0  0  0  0  0  0  0  0
    2.6613   -0.8403    0.0000 C   0  0  0  0  0  0  0  0  0  0  0  0
    1.9469   -0.4278    0.0000 O   0  0  0  0  0  0  0  0  0  0  0  0
    1.9469    0.3972    0.0000 Si  0  0  0  0  0  3  0  0  0  0  0  0
    1.2324    0.8097    0.0000 O   0  0  0  0  0  0  0  0  0  0  0  0
    1.2324    1.6347    0.0000 C   0  0  0  0  0  0  0  0  0  0  0  0
    0.5179    2.0472    0.0000 C   0  0  0  0  0  0  0  0  0  0  0  0
    2.6613    0.8097    0.0000 O   0  0  0  0  0  0  0  0  0  0  0  0
    2.6613    1.6347    0.0000 C   0  0  0  0  0  0  0  0  0  0  0  0
    3.3758    2.0472    0.0000 C   0  0  0  0  0  0  0  0  0  0  0  0
    1.8363   -1.6653    0.0000 H   0  0  0  0  0  0  0  0  0  0  0  0
    2.6613   -2.4903    0.0000 H   0  0  0  0  0  0  0  0  0  0  0  0
    3.4863   -1.6653    0.0000 H   0  0  0  0  0  0  0  0  0  0  0  0
    3.4849   -0.7923    0.0000 H   0  0  0  0  0  0  0  0  0  0  0  0
    3.1147   -0.1510    0.0000 H   0  0  0  0  0  0  0  0  0  0  0  0
    2.0560    1.6827    0.0000 H   0  0  0  0  0  0  0  0  0  0  0  0
    1.6857    2.3240    0.0000 H   0  0  0  0  0  0  0  0  0  0  0  0
    0.9304    2.7617    0.0000 H   0  0  0  0  0  0  0  0  0  0  0  0
   -0.1966    2.4597    0.0000 H   0  0  0  0  0  0  0  0  0  0  0  0
    0.1054    1.3327    0.0000 H   0  0  0  0  0  0  0  0  0  0  0  0
    2.4795    2.4394    0.0000 H   0  0  0  0  0  0  0  0  0  0  0  0
    3.3758    1.2222    0.0000 H   0  0  0  0  0  0  0  0  0  0  0  0
    4.1727    1.8337    0.0000 H   0  0  0  0  0  0  0  0  0  0  0  0
    3.7883    2.7617    0.0000 H   0  0  0  0  0  0  0  0  0  0  0  0
    2.7924    2.6306    0.0000 H   0  0  0  0  0  0  0  0  0  0  0  0
  1  2  1  0  0  0  0
  2  3  1  0  0  0  0
  3  4  1  0  0  0  0
  4  5  1  0  0  0  0
  5  6  1  0  0  0  0
  6  7  1  0  0  0  0
  4  8  1  0  0  0  0
  8  9  1  0  0  0  0
  9 10  1  0  0  0  0
  1 11  1  0  0  0  0
  1 12  1  0  0  0  0
  1 13  1  0  0  0  0
  2 14  1  0  0  0  0
  2 15  1  0  0  0  0
  6 16  1  0  0  0  0
  6 17  1  0  0  0  0
  7 18  1  0  0  0  0
  7 19  1  0  0  0  0
  7 20  1  0  0  0  0
  9 21  1  0  0  0  0
  9 22  1  0  0  0  0
 10 23  1  0  0  0  0
 10 24  1  0  0  0  0
 10 25  1  0  0  0  0
M  RAD  1   4   2
M  END
>  <id_input>
5137

>  <InChIKey>
PKDCQJMRWCHQOH-UHFFFAOYSA-N

>  <substance_name>
triethoxysilane

>  <casrn>
998-30-1

>  <Molecular weight>
163.26699829101562

>  <guideline>
OECD Guideline 404 (Acute Dermal Irritation / Corrosion)

>  <species>
rabbit

>  <type_of_coverage>
semiocclusive

>  <max_duration(hrs)>
4.0

>  <vehicle>
unchanged (no vehicle)

>  <edema/ erythema score>
2.44666666666666

>  <max_score>
4.0

>  <reversibility>
0.0

>  <Outcome>
1

>  <StandardizerResult>
Remove Explicit Hydrogens (ID: RemoveExplicitH)
Clear Stereo (ID: ClearStereo)
Wedge Clean (ID: WedgeClean)
Mesomerize (ID: Mesomerize)
Tautomerize (ID: Tautomerize)
Add Explicit Hydrogens (ID: AddExplicitH)
Neutralize (ID: Neutralize)
Clean 2D (ID: Clean2D)


$$$$

  Mrv1812 02121911042D          

 39 38  0  0  0  0            999 V2000
    0.0583   -0.1404    0.0000 C   0  0  0  0  0  0  0  0  0  0  0  0
    0.0583    0.6846    0.0000 C   0  0  0  0  0  0  0  0  0  0  0  0
   -0.6562    1.0971    0.0000 C   0  0  0  0  0  0  0  0  0  0  0  0
    0.7727    1.0971    0.0000 Si  0  0  0  0  0  4  0  0  0  0  0  0
    1.4872    1.5096    0.0000 O   0  0  0  0  0  0  0  0  0  0  0  0
    1.4872    2.3346    0.0000 C   0  0  0  0  0  0  0  0  0  0  0  0
    0.7727    2.7471    0.0000 O   0  0  0  0  0  0  0  0  0  0  0  0
    2.2017    2.7471    0.0000 C   0  0  0  0  0  0  0  0  0  0  0  0
    2.2017    3.5721    0.0000 C   0  0  0  0  0  0  0  0  0  0  0  0
    1.1852    0.3827    0.0000 C   0  0  0  0  0  0  0  0  0  0  0  0
    2.0102    0.3827    0.0000 C   0  0  0  0  0  0  0  0  0  0  0  0
    0.7727   -0.3318    0.0000 C   0  0  0  0  0  0  0  0  0  0  0  0
    0.3602    1.8116    0.0000 C   0  0  0  0  0  0  0  0  0  0  0  0
    0.2740    2.6321    0.0000 C   0  0  0  0  0  0  0  0  0  0  0  0
   -0.4648    1.8116    0.0000 C   0  0  0  0  0  0  0  0  0  0  0  0
   -0.6817    0.2245    0.0000 H   0  0  0  0  0  0  0  0  0  0  0  0
   -0.5963   -0.6426    0.0000 H   0  0  0  0  0  0  0  0  0  0  0  0
    0.2192   -0.9495    0.0000 H   0  0  0  0  0  0  0  0  0  0  0  0
    0.0583    1.5096    0.0000 H   0  0  0  0  0  0  0  0  0  0  0  0
   -1.1095    1.7864    0.0000 H   0  0  0  0  0  0  0  0  0  0  0  0
   -1.4725    1.2167    0.0000 H   0  0  0  0  0  0  0  0  0  0  0  0
   -1.2882    0.5669    0.0000 H   0  0  0  0  0  0  0  0  0  0  0  0
    2.9161    2.3346    0.0000 H   0  0  0  0  0  0  0  0  0  0  0  0
    2.9161    3.9846    0.0000 H   0  0  0  0  0  0  0  0  0  0  0  0
    1.4872    3.9846    0.0000 H   0  0  0  0  0  0  0  0  0  0  0  0
    1.5977    1.0971    0.0000 H   0  0  0  0  0  0  0  0  0  0  0  0
    1.7967   -0.4142    0.0000 H   0  0  0  0  0  0  0  0  0  0  0  0
    2.7247   -0.0298    0.0000 H   0  0  0  0  0  0  0  0  0  0  0  0
    2.5936    0.9660    0.0000 H   0  0  0  0  0  0  0  0  0  0  0  0
    1.2190   -1.0257    0.0000 H   0  0  0  0  0  0  0  0  0  0  0  0
    1.5710   -0.5399    0.0000 H   0  0  0  0  0  0  0  0  0  0  0  0
    0.4570    0.4304    0.0000 H   0  0  0  0  0  0  0  0  0  0  0  0
    1.1449    2.0665    0.0000 H   0  0  0  0  0  0  0  0  0  0  0  0
    0.4351    3.4412    0.0000 H   0  0  0  0  0  0  0  0  0  0  0  0
   -0.3976    3.1112    0.0000 H   0  0  0  0  0  0  0  0  0  0  0  0
   -0.4387    2.2165    0.0000 H   0  0  0  0  0  0  0  0  0  0  0  0
   -1.0407    2.4023    0.0000 H   0  0  0  0  0  0  0  0  0  0  0  0
    0.1371    2.3759    0.0000 H   0  0  0  0  0  0  0  0  0  0  0  0
   -0.1491    1.0494    0.0000 H   0  0  0  0  0  0  0  0  0  0  0  0
  1  2  1  0  0  0  0
  2  3  1  0  0  0  0
  2  4  1  0  0  0  0
  4  5  1  0  0  0  0
  5  6  1  0  0  0  0
  6  7  2  0  0  0  0
  6  8  1  0  0  0  0
  8  9  2  0  0  0  0
  4 10  1  0  0  0  0
 10 11  1  0  0  0  0
 10 12  1  0  0  0  0
  4 13  1  0  0  0  0
 13 14  1  0  0  0  0
 13 15  1  0  0  0  0
  1 16  1  0  0  0  0
  1 17  1  0  0  0  0
  1 18  1  0  0  0  0
  2 19  1  0  0  0  0
  3 20  1  0  0  0  0
  3 21  1  0  0  0  0
  3 22  1  0  0  0  0
  8 23  1  4  0  0  0
  9 24  1  0  0  0  0
  9 25  1  0  0  0  0
 10 26  1  0  0  0  0
 11 27  1  0  0  0  0
 11 28  1  0  0  0  0
 11 29  1  0  0  0  0
 12 30  1  0  0  0  0
 12 31  1  0  0  0  0
 12 32  1  0  0  0  0
 13 33  1  0  0  0  0
 14 34  1  0  0  0  0
 14 35  1  0  0  0  0
 14 36  1  0  0  0  0
 15 37  1  0  0  0  0
 15 38  1  0  0  0  0
 15 39  1  0  0  0  0
M  END
>  <id_input>
232

>  <InChIKey>
PQSIXYSSKXAOFE-UHFFFAOYSA-N

>  <substance_name>
-

>  <casrn>
157859-20-6

>  <Molecular weight>
228.40325927734375

>  <guideline>
EU Method B.4 (Acute Toxicity: Dermal Irritation / Corrosion)

>  <species>
rabbit

>  <type_of_coverage>
semiocclusive

>  <max_duration(hrs)>
4.0

>  <vehicle>
unchanged (no vehicle)

>  <edema/ erythema score>
2.0

>  <max_score>
4.0

>  <reversibility>
0.0

>  <Outcome>
1

>  <StandardizerResult>
Remove Explicit Hydrogens (ID: RemoveExplicitH)
Clear Stereo (ID: ClearStereo)
Wedge Clean (ID: WedgeClean)
Mesomerize (ID: Mesomerize)
Tautomerize (ID: Tautomerize)
Add Explicit Hydrogens (ID: AddExplicitH)
Neutralize (ID: Neutralize)
Clean 2D (ID: Clean2D)


$$$$

  Mrv1812 02121911042D          

 30 31  0  0  0  0            999 V2000
    1.0769    1.6164    0.0000 O   0  0  0  0  0  0  0  0  0  0  0  0
    0.3624    1.2039    0.0000 C   0  0  0  0  0  0  0  0  0  0  0  0
   -0.3521    1.6164    0.0000 C   0  0  0  0  0  0  0  0  0  0  0  0
   -1.0665    1.2039    0.0000 C   0  0  0  0  0  0  0  0  0  0  0  0
   -1.7810    1.6164    0.0000 O   0  0  0  0  0  0  0  0  0  0  0  0
   -1.0665    0.3789    0.0000 C   0  0  0  0  0  0  0  0  0  0  0  0
   -0.3521   -0.0336    0.0000 C   0  0  0  0  0  0  0  0  0  0  0  0
    0.3624    0.3789    0.0000 C   0  0  0  0  0  0  0  0  0  0  0  0
    1.0769   -0.0336    0.0000 C   0  0  0  0  0  0  0  0  0  0  0  0
    1.7913    0.3789    0.0000 C   0  0  0  0  0  0  0  0  0  0  0  0
    2.5058   -0.0336    0.0000 C   0  0  0  0  0  0  0  0  0  0  0  0
    3.2203    0.3789    0.0000 C   0  0  0  0  0  0  0  0  0  0  0  0
    3.2203    1.2039    0.0000 C   0  0  0  0  0  0  0  0  0  0  0  0
    2.5058    1.6164    0.0000 C   0  0  0  0  0  0  0  0  0  0  0  0
    1.7913    1.2039    0.0000 C   0  0  0  0  0  0  0  0  0  0  0  0
    1.0769   -0.8586    0.0000 C   0  0  0  0  0  0  0  0  0  0  0  0
    1.0769    2.4414    0.0000 H   0  0  0  0  0  0  0  0  0  0  0  0
   -0.3521    2.4414    0.0000 H   0  0  0  0  0  0  0  0  0  0  0  0
   -1.7810    2.4414    0.0000 H   0  0  0  0  0  0  0  0  0  0  0  0
   -1.7810   -0.0336    0.0000 H   0  0  0  0  0  0  0  0  0  0  0  0
   -0.3521   -0.8586    0.0000 H   0  0  0  0  0  0  0  0  0  0  0  0
    1.0769    0.7914    0.0000 H   0  0  0  0  0  0  0  0  0  0  0  0
    2.5058   -0.8586    0.0000 H   0  0  0  0  0  0  0  0  0  0  0  0
    3.9348   -0.0336    0.0000 H   0  0  0  0  0  0  0  0  0  0  0  0
    3.9348    1.6164    0.0000 H   0  0  0  0  0  0  0  0  0  0  0  0
    2.5058    2.4414    0.0000 H   0  0  0  0  0  0  0  0  0  0  0  0
    1.7913    2.0289    0.0000 H   0  0  0  0  0  0  0  0  0  0  0  0
    0.2519   -0.8586    0.0000 H   0  0  0  0  0  0  0  0  0  0  0  0
    1.0769   -1.6836    0.0000 H   0  0  0  0  0  0  0  0  0  0  0  0
    1.9019   -0.8586    0.0000 H   0  0  0  0  0  0  0  0  0  0  0  0
  1  2  1  0  0  0  0
  3  2  4  0  0  0  0
  4  3  4  0  0  0  0
  4  5  1  0  0  0  0
  6  4  4  0  0  0  0
  7  6  4  0  0  0  0
  8  7  4  0  0  0  0
  8  9  1  0  0  0  0
  9 10  1  0  0  0  0
 11 10  4  0  0  0  0
 12 11  4  0  0  0  0
 13 12  4  0  0  0  0
 14 13  4  0  0  0  0
 15 14  4  0  0  0  0
  9 16  1  0  0  0  0
  2  8  4  0  0  0  0
 10 15  4  0  0  0  0
  1 17  1  0  0  0  0
  3 18  1  0  0  0  0
  5 19  1  0  0  0  0
  6 20  1  0  0  0  0
  7 21  1  0  0  0  0
  9 22  1  0  0  0  0
 11 23  1  0  0  0  0
 12 24  1  0  0  0  0
 13 25  1  0  0  0  0
 14 26  1  0  0  0  0
 15 27  1  0  0  0  0
 16 28  1  0  0  0  0
 16 29  1  0  0  0  0
 16 30  1  0  0  0  0
M  END
>  <id_input>
1436

>  <InChIKey>
PQSXNIMHIHYFEE-UHFFFAOYSA-N

>  <substance_name>
-

>  <casrn>
85-27-8

>  <Molecular weight>
214.259765625

>  <guideline>
EU Method B.4 (Acute Toxicity: Dermal Irritation / Corrosion)

>  <species>
rabbit

>  <type_of_coverage>
semiocclusive

>  <max_duration(hrs)>
4.0

>  <vehicle>
unchanged (no vehicle)

>  <edema/ erythema score>
2.165

>  <max_score>
4.0

>  <reversibility>
0.0

>  <Outcome>
1

>  <StandardizerResult>
Remove Explicit Hydrogens (ID: RemoveExplicitH)
Dearomatize (ID: Dearomatize)
Clear Stereo (ID: ClearStereo)
Wedge Clean (ID: WedgeClean)
Mesomerize (ID: Mesomerize)
Tautomerize (ID: Tautomerize)
Aromatize (ID: Aromatize)
Add Explicit Hydrogens (ID: AddExplicitH)
Neutralize (ID: Neutralize)
Clean 2D (ID: Clean2D)


$$$$

  Mrv1812 02121911042D          

 28 29  0  0  0  0            999 V2000
    0.1357    2.2058    0.0000 C   0  0  0  0  0  0  0  0  0  0  0  0
   -0.5788    1.7933    0.0000 C   0  0  0  0  0  0  0  0  0  0  0  0
   -1.2932    2.2058    0.0000 C   0  0  0  0  0  0  0  0  0  0  0  0
   -2.0077    1.7933    0.0000 C   0  0  0  0  0  0  0  0  0  0  0  0
   -2.0077    0.9683    0.0000 C   0  0  0  0  0  0  0  0  0  0  0  0
   -1.2932    0.5558    0.0000 C   0  0  0  0  0  0  0  0  0  0  0  0
   -0.5788    0.9683    0.0000 C   0  0  0  0  0  0  0  0  0  0  0  0
    0.1357    0.5558    0.0000 C   0  0  0  0  0  0  0  0  0  0  0  0
    0.8502    0.9683    0.0000 C   0  0  0  0  0  0  0  0  0  0  0  0
    1.5647    0.5558    0.0000 C   0  0  0  0  0  0  0  0  0  0  0  0
    2.2791    0.9683    0.0000 C   0  0  0  0  0  0  0  0  0  0  0  0
    2.2791    1.7933    0.0000 C   0  0  0  0  0  0  0  0  0  0  0  0
    1.5647    2.2058    0.0000 C   0  0  0  0  0  0  0  0  0  0  0  0
    0.8502    1.7933    0.0000 C   0  0  0  0  0  0  0  0  0  0  0  0
    0.8502    2.6183    0.0000 H   0  0  0  0  0  0  0  0  0  0  0  0
    0.1357    3.0308    0.0000 H   0  0  0  0  0  0  0  0  0  0  0  0
   -0.5788    2.6183    0.0000 H   0  0  0  0  0  0  0  0  0  0  0  0
   -1.7057    2.9203    0.0000 H   0  0  0  0  0  0  0  0  0  0  0  0
   -2.7222    2.2058    0.0000 H   0  0  0  0  0  0  0  0  0  0  0  0
   -2.7222    0.5558    0.0000 H   0  0  0  0  0  0  0  0  0  0  0  0
   -1.2932   -0.2692    0.0000 H   0  0  0  0  0  0  0  0  0  0  0  0
   -0.2345   -0.1815    0.0000 H   0  0  0  0  0  0  0  0  0  0  0  0
    0.5060   -0.1815    0.0000 H   0  0  0  0  0  0  0  0  0  0  0  0
    1.5647   -0.2692    0.0000 H   0  0  0  0  0  0  0  0  0  0  0  0
    2.9936    0.5558    0.0000 H   0  0  0  0  0  0  0  0  0  0  0  0
    2.9936    2.2058    0.0000 H   0  0  0  0  0  0  0  0  0  0  0  0
    1.9772    2.9203    0.0000 H   0  0  0  0  0  0  0  0  0  0  0  0
    1.5647    1.3808    0.0000 H   0  0  0  0  0  0  0  0  0  0  0  0
  1  2  1  0  0  0  0
  3  2  4  0  0  0  0
  4  3  4  0  0  0  0
  5  4  4  0  0  0  0
  6  5  4  0  0  0  0
  7  6  4  0  0  0  0
  7  8  1  0  0  0  0
  8  9  1  0  0  0  0
 10  9  4  0  0  0  0
 11 10  4  0  0  0  0
 12 11  4  0  0  0  0
 13 12  4  0  0  0  0
 14 13  4  0  0  0  0
  2  7  4  0  0  0  0
  9 14  4  0  0  0  0
  1 15  1  0  0  0  0
  1 16  1  0  0  0  0
  1 17  1  0  0  0  0
  3 18  1  0  0  0  0
  4 19  1  0  0  0  0
  5 20  1  0  0  0  0
  6 21  1  0  0  0  0
  8 22  1  0  0  0  0
  8 23  1  0  0  0  0
 10 24  1  0  0  0  0
 11 25  1  0  0  0  0
 12 26  1  0  0  0  0
 13 27  1  0  0  0  0
 14 28  1  0  0  0  0
M  END
>  <id_input>
1888

>  <InChIKey>
PQTAUFTUHHRKSS-UHFFFAOYSA-N

>  <substance_name>
1-benzyl-2-methylbenzene

>  <casrn>
27776-01-8

>  <Molecular weight>
182.26095581054688

>  <guideline>
OECD Guideline 404 (Acute Dermal Irritation / Corrosion)

>  <species>
rabbit

>  <type_of_coverage>
semiocclusive

>  <max_duration(hrs)>
4.0

>  <vehicle>
unchanged (no vehicle)

>  <edema/ erythema score>
3.56

>  <max_score>
4.0

>  <reversibility>
0.0

>  <Outcome>
1

>  <StandardizerResult>
Remove Explicit Hydrogens (ID: RemoveExplicitH)
Dearomatize (ID: Dearomatize)
Clear Stereo (ID: ClearStereo)
Wedge Clean (ID: WedgeClean)
Mesomerize (ID: Mesomerize)
Tautomerize (ID: Tautomerize)
Aromatize (ID: Aromatize)
Add Explicit Hydrogens (ID: AddExplicitH)
Neutralize (ID: Neutralize)
Clean 2D (ID: Clean2D)


$$$$

  Mrv1812 02121911042D          

 54 53  0  0  0  0            999 V2000
   -3.4070   -1.9404    0.0000 C   0  0  0  0  0  0  0  0  0  0  0  0
   -2.6925   -2.3529    0.0000 C   0  0  0  0  0  0  0  0  0  0  0  0
   -1.9780   -1.9404    0.0000 C   0  0  0  0  0  0  0  0  0  0  0  0
   -1.2636   -2.3529    0.0000 C   0  0  0  0  0  0  0  0  0  0  0  0
   -0.5491   -1.9404    0.0000 C   0  0  0  0  0  0  0  0  0  0  0  0
   -0.5491   -1.1154    0.0000 C   0  0  0  0  0  0  0  0  0  0  0  0
    0.1654   -0.7029    0.0000 C   0  0  0  0  0  0  0  0  0  0  0  0
    0.1654   -2.3529    0.0000 C   0  0  0  0  0  0  0  0  0  0  0  0
    0.8798   -1.9404    0.0000 O   0  0  0  0  0  0  0  0  0  0  0  0
    1.5943   -2.3529    0.0000 C   0  0  0  0  0  0  0  0  0  0  0  0
    1.5943   -3.1779    0.0000 O   0  0  0  0  0  0  0  0  0  0  0  0
    2.3088   -1.9404    0.0000 O   0  0  0  0  0  0  0  0  0  0  0  0
    3.0233   -2.3529    0.0000 C   0  0  0  0  0  0  0  0  0  0  0  0
    3.7377   -1.9404    0.0000 C   0  0  0  0  0  0  0  0  0  0  0  0
    3.7377   -1.1154    0.0000 C   0  0  0  0  0  0  0  0  0  0  0  0
    4.4522   -0.7029    0.0000 C   0  0  0  0  0  0  0  0  0  0  0  0
    4.4522   -2.3529    0.0000 C   0  0  0  0  0  0  0  0  0  0  0  0
    5.1667   -1.9404    0.0000 C   0  0  0  0  0  0  0  0  0  0  0  0
    5.8811   -2.3529    0.0000 C   0  0  0  0  0  0  0  0  0  0  0  0
    6.5956   -1.9404    0.0000 C   0  0  0  0  0  0  0  0  0  0  0  0
   -2.9945   -1.2260    0.0000 H   0  0  0  0  0  0  0  0  0  0  0  0
   -4.1215   -1.5279    0.0000 H   0  0  0  0  0  0  0  0  0  0  0  0
   -3.8195   -2.6549    0.0000 H   0  0  0  0  0  0  0  0  0  0  0  0
   -3.0628   -3.0902    0.0000 H   0  0  0  0  0  0  0  0  0  0  0  0
   -2.3223   -3.0902    0.0000 H   0  0  0  0  0  0  0  0  0  0  0  0
   -1.6078   -1.2032    0.0000 H   0  0  0  0  0  0  0  0  0  0  0  0
   -2.3483   -1.2032    0.0000 H   0  0  0  0  0  0  0  0  0  0  0  0
   -1.6338   -3.0902    0.0000 H   0  0  0  0  0  0  0  0  0  0  0  0
   -0.8933   -3.0902    0.0000 H   0  0  0  0  0  0  0  0  0  0  0  0
   -1.2636   -1.5279    0.0000 H   0  0  0  0  0  0  0  0  0  0  0  0
   -0.6924   -0.3030    0.0000 H   0  0  0  0  0  0  0  0  0  0  0  0
   -1.1811   -0.5851    0.0000 H   0  0  0  0  0  0  0  0  0  0  0  0
    0.3962   -1.4950    0.0000 H   0  0  0  0  0  0  0  0  0  0  0  0
    0.9896   -0.6669    0.0000 H   0  0  0  0  0  0  0  0  0  0  0  0
    0.3263    0.1062    0.0000 H   0  0  0  0  0  0  0  0  0  0  0  0
   -0.2049   -3.0902    0.0000 H   0  0  0  0  0  0  0  0  0  0  0  0
    0.5356   -3.0902    0.0000 H   0  0  0  0  0  0  0  0  0  0  0  0
    2.6530   -3.0902    0.0000 H   0  0  0  0  0  0  0  0  0  0  0  0
    3.3935   -3.0902    0.0000 H   0  0  0  0  0  0  0  0  0  0  0  0
    3.0233   -1.5279    0.0000 H   0  0  0  0  0  0  0  0  0  0  0  0
    3.5945   -0.3030    0.0000 H   0  0  0  0  0  0  0  0  0  0  0  0
    3.1057   -0.5851    0.0000 H   0  0  0  0  0  0  0  0  0  0  0  0
    4.6831   -1.4950    0.0000 H   0  0  0  0  0  0  0  0  0  0  0  0
    5.2764   -0.6669    0.0000 H   0  0  0  0  0  0  0  0  0  0  0  0
    4.6131    0.1062    0.0000 H   0  0  0  0  0  0  0  0  0  0  0  0
    4.0819   -3.0902    0.0000 H   0  0  0  0  0  0  0  0  0  0  0  0
    4.8225   -3.0902    0.0000 H   0  0  0  0  0  0  0  0  0  0  0  0
    5.6554   -1.2757    0.0000 H   0  0  0  0  0  0  0  0  0  0  0  0
    5.1667   -2.7654    0.0000 H   0  0  0  0  0  0  0  0  0  0  0  0
    6.0244   -3.1654    0.0000 H   0  0  0  0  0  0  0  0  0  0  0  0
    6.5131   -2.8832    0.0000 H   0  0  0  0  0  0  0  0  0  0  0  0
    7.3768   -2.2056    0.0000 H   0  0  0  0  0  0  0  0  0  0  0  0
    7.0389   -1.2446    0.0000 H   0  0  0  0  0  0  0  0  0  0  0  0
    6.0251   -1.3445    0.0000 H   0  0  0  0  0  0  0  0  0  0  0  0
  1  2  1  0  0  0  0
  2  3  1  0  0  0  0
  3  4  1  0  0  0  0
  4  5  1  0  0  0  0
  5  6  1  0  0  0  0
  6  7  1  0  0  0  0
  5  8  1  0  0  0  0
  8  9  1  0  0  0  0
  9 10  1  0  0  0  0
 10 11  2  0  0  0  0
 10 12  1  0  0  0  0
 12 13  1  0  0  0  0
 13 14  1  0  0  0  0
 14 15  1  0  0  0  0
 15 16  1  0  0  0  0
 14 17  1  0  0  0  0
 17 18  1  0  0  0  0
 18 19  1  0  0  0  0
 19 20  1  0  0  0  0
  1 21  1  0  0  0  0
  1 22  1  0  0  0  0
  1 23  1  0  0  0  0
  2 24  1  0  0  0  0
  2 25  1  0  0  0  0
  3 26  1  0  0  0  0
  3 27  1  0  0  0  0
  4 28  1  0  0  0  0
  4 29  1  0  0  0  0
  5 30  1  0  0  0  0
  6 31  1  0  0  0  0
  6 32  1  0  0  0  0
  7 33  1  0  0  0  0
  7 34  1  0  0  0  0
  7 35  1  0  0  0  0
  8 36  1  0  0  0  0
  8 37  1  0  0  0  0
 13 38  1  0  0  0  0
 13 39  1  0  0  0  0
 14 40  1  0  0  0  0
 15 41  1  0  0  0  0
 15 42  1  0  0  0  0
 16 43  1  0  0  0  0
 16 44  1  0  0  0  0
 16 45  1  0  0  0  0
 17 46  1  0  0  0  0
 17 47  1  0  0  0  0
 18 48  1  0  0  0  0
 18 49  1  0  0  0  0
 19 50  1  0  0  0  0
 19 51  1  0  0  0  0
 20 52  1  0  0  0  0
 20 53  1  0  0  0  0
 20 54  1  0  0  0  0
M  END
>  <id_input>
3918

>  <InChIKey>
PXTQQOLKZBLYDY-UHFFFAOYSA-N

>  <substance_name>
bis(2-ethylhexyl) carbonate

>  <casrn>
14858-73-2

>  <Molecular weight>
286.4500732421875

>  <guideline>
OECD Guideline 404 (Acute Dermal Irritation / Corrosion)

>  <species>
rabbit

>  <type_of_coverage>
semiocclusive

>  <max_duration(hrs)>
4.0

>  <vehicle>
unchanged (no vehicle)

>  <edema/ erythema score>
2.33333333333333

>  <max_score>
4.0

>  <reversibility>
0.0

>  <Outcome>
1

>  <StandardizerResult>
Remove Explicit Hydrogens (ID: RemoveExplicitH)
Clear Stereo (ID: ClearStereo)
Wedge Clean (ID: WedgeClean)
Mesomerize (ID: Mesomerize)
Tautomerize (ID: Tautomerize)
Add Explicit Hydrogens (ID: AddExplicitH)
Neutralize (ID: Neutralize)
Clean 2D (ID: Clean2D)


$$$$

  Mrv1812 02121911042D          

 11 10  0  0  0  0            999 V2000
    1.9731   -0.5335    0.0000 C   0  0  0  0  0  0  0  0  0  0  0  0
    1.5606    0.1810    0.0000 O   0  0  0  0  0  0  0  0  0  0  0  0
    0.7356    0.1810    0.0000 C   0  0  0  0  0  0  0  0  0  0  0  0
    0.3231   -0.5335    0.0000 O   0  0  0  0  0  0  0  0  0  0  0  0
    0.3231    0.8954    0.0000 C   0  0  0  0  0  0  0  0  0  0  0  0
   -0.5019    0.8954    0.0000 Cl  0  0  0  0  0  0  0  0  0  0  0  0
    1.2586   -0.9460    0.0000 H   0  0  0  0  0  0  0  0  0  0  0  0
    2.3856   -1.2480    0.0000 H   0  0  0  0  0  0  0  0  0  0  0  0
    2.6876   -0.1210    0.0000 H   0  0  0  0  0  0  0  0  0  0  0  0
    1.0124    1.3488    0.0000 H   0  0  0  0  0  0  0  0  0  0  0  0
    0.3711    1.7190    0.0000 H   0  0  0  0  0  0  0  0  0  0  0  0
  1  2  1  0  0  0  0
  2  3  1  0  0  0  0
  3  4  2  0  0  0  0
  3  5  1  0  0  0  0
  5  6  1  0  0  0  0
  1  7  1  0  0  0  0
  1  8  1  0  0  0  0
  1  9  1  0  0  0  0
  5 10  1  0  0  0  0
  5 11  1  0  0  0  0
M  END
>  <id_input>
4542

>  <InChIKey>
QABLOFMHHSOFRJ-UHFFFAOYSA-N

>  <substance_name>
methyl 2-chloroacetate

>  <casrn>
96-34-4

>  <Molecular weight>
108.52359771728516

>  <guideline>
OECD Guideline 404 (Acute Dermal Irritation / Corrosion)

>  <species>
rabbit

>  <type_of_coverage>
semiocclusive

>  <max_duration(hrs)>
4.0

>  <vehicle>
unchanged (no vehicle)

>  <edema/ erythema score>
3.33333333333333

>  <max_score>
4.0

>  <reversibility>
0.0

>  <Outcome>
1

>  <StandardizerResult>
Remove Explicit Hydrogens (ID: RemoveExplicitH)
Clear Stereo (ID: ClearStereo)
Wedge Clean (ID: WedgeClean)
Mesomerize (ID: Mesomerize)
Tautomerize (ID: Tautomerize)
Add Explicit Hydrogens (ID: AddExplicitH)
Neutralize (ID: Neutralize)
Clean 2D (ID: Clean2D)


$$$$

  Mrv1812 02121911042D          

 12 12  0  0  0  0            999 V2000
    1.4289    0.8250    0.0000 Br  0  0  0  0  0  0  0  0  0  0  0  0
    0.7145    0.4125    0.0000 C   0  0  0  0  0  0  0  0  0  0  0  0
   -0.0000    0.8250    0.0000 C   0  0  0  0  0  0  0  0  0  0  0  0
   -0.7145    0.4125    0.0000 C   0  0  0  0  0  0  0  0  0  0  0  0
   -0.7145   -0.4125    0.0000 C   0  0  0  0  0  0  0  0  0  0  0  0
   -0.0000   -0.8250    0.0000 C   0  0  0  0  0  0  0  0  0  0  0  0
    0.7145   -0.4125    0.0000 C   0  0  0  0  0  0  0  0  0  0  0  0
   -0.0000    1.6500    0.0000 H   0  0  0  0  0  0  0  0  0  0  0  0
   -1.4289    0.8250    0.0000 H   0  0  0  0  0  0  0  0  0  0  0  0
   -1.4289   -0.8250    0.0000 H   0  0  0  0  0  0  0  0  0  0  0  0
   -0.0000   -1.6500    0.0000 H   0  0  0  0  0  0  0  0  0  0  0  0
    1.4289   -0.8250    0.0000 H   0  0  0  0  0  0  0  0  0  0  0  0
  1  2  1  0  0  0  0
  3  2  4  0  0  0  0
  4  3  4  0  0  0  0
  5  4  4  0  0  0  0
  6  5  4  0  0  0  0
  7  6  4  0  0  0  0
  2  7  4  0  0  0  0
  3  8  1  0  0  0  0
  4  9  1  0  0  0  0
  5 10  1  0  0  0  0
  6 11  1  0  0  0  0
  7 12  1  0  0  0  0
M  END
>  <id_input>
3947

>  <InChIKey>
QARVLSVVCXYDNA-UHFFFAOYSA-N

>  <substance_name>
bromobenzene

>  <casrn>
108-86-1

>  <Molecular weight>
157.00790405273438

>  <guideline>
OECD Guideline 404 (Acute Dermal Irritation / Corrosion)

>  <species>
rabbit

>  <type_of_coverage>
semiocclusive

>  <max_duration(hrs)>
4.0

>  <vehicle>
unchanged (no vehicle)

>  <edema/ erythema score>
2.66666666666666

>  <max_score>
4.0

>  <reversibility>
0.0

>  <Outcome>
1

>  <StandardizerResult>
Remove Explicit Hydrogens (ID: RemoveExplicitH)
Dearomatize (ID: Dearomatize)
Clear Stereo (ID: ClearStereo)
Wedge Clean (ID: WedgeClean)
Mesomerize (ID: Mesomerize)
Tautomerize (ID: Tautomerize)
Aromatize (ID: Aromatize)
Add Explicit Hydrogens (ID: AddExplicitH)
Neutralize (ID: Neutralize)
Clean 2D (ID: Clean2D)


$$$$

  Mrv1812 02121911042D          

 25 25  0  0  0  0            999 V2000
    2.7014    0.9437    0.0000 C   0  0  0  0  0  0  0  0  0  0  0  0
    1.9869    0.5312    0.0000 C   0  0  0  0  0  0  0  0  0  0  0  0
    1.5744    1.2457    0.0000 C   0  0  0  0  0  0  0  0  0  0  0  0
    2.3994   -0.1832    0.0000 C   0  0  0  0  0  0  0  0  0  0  0  0
    1.2725    0.1187    0.0000 C   0  0  0  0  0  0  0  0  0  0  0  0
    0.5580    0.5312    0.0000 C   0  0  0  0  0  0  0  0  0  0  0  0
   -0.1565    0.1187    0.0000 C   0  0  0  0  0  0  0  0  0  0  0  0
   -0.1565   -0.7063    0.0000 C   0  0  0  0  0  0  0  0  0  0  0  0
   -0.8709   -1.1188    0.0000 O   0  0  0  0  0  0  0  0  0  0  0  0
    0.5580   -1.1188    0.0000 C   0  0  0  0  0  0  0  0  0  0  0  0
    1.2725   -0.7063    0.0000 C   0  0  0  0  0  0  0  0  0  0  0  0
    3.1139    0.2293    0.0000 H   0  0  0  0  0  0  0  0  0  0  0  0
    3.4159    1.3562    0.0000 H   0  0  0  0  0  0  0  0  0  0  0  0
    2.2889    1.6582    0.0000 H   0  0  0  0  0  0  0  0  0  0  0  0
    1.4668    2.0636    0.0000 H   0  0  0  0  0  0  0  0  0  0  0  0
    0.7775    1.4592    0.0000 H   0  0  0  0  0  0  0  0  0  0  0  0
    1.0722    0.5912    0.0000 H   0  0  0  0  0  0  0  0  0  0  0  0
    1.5815   -0.2909    0.0000 H   0  0  0  0  0  0  0  0  0  0  0  0
    2.1859   -0.9801    0.0000 H   0  0  0  0  0  0  0  0  0  0  0  0
    3.0540   -0.6855    0.0000 H   0  0  0  0  0  0  0  0  0  0  0  0
   -0.1039    1.0238    0.0000 H   0  0  0  0  0  0  0  0  0  0  0  0
   -0.9811    0.1427    0.0000 H   0  0  0  0  0  0  0  0  0  0  0  0
   -1.5854   -0.7063    0.0000 H   0  0  0  0  0  0  0  0  0  0  0  0
    0.5580   -1.9438    0.0000 H   0  0  0  0  0  0  0  0  0  0  0  0
    1.3681   -1.5257    0.0000 H   0  0  0  0  0  0  0  0  0  0  0  0
  1  2  1  0  0  0  0
  2  3  1  0  0  0  0
  2  4  1  0  0  0  0
  2  5  1  0  0  0  0
  6  5  4  0  0  0  0
  7  6  4  0  0  0  0
  8  7  4  0  0  0  0
  8  9  1  0  0  0  0
 10  8  4  0  0  0  0
 11 10  4  0  0  0  0
  5 11  4  0  0  0  0
  1 12  1  0  0  0  0
  1 13  1  0  0  0  0
  1 14  1  0  0  0  0
  3 15  1  0  0  0  0
  3 16  1  0  0  0  0
  3 17  1  0  0  0  0
  4 18  1  0  0  0  0
  4 19  1  0  0  0  0
  4 20  1  0  0  0  0
  6 21  1  0  0  0  0
  7 22  1  0  0  0  0
  9 23  1  0  0  0  0
 10 24  1  0  0  0  0
 11 25  1  0  0  0  0
M  END
>  <id_input>
2933

>  <InChIKey>
QHPQWRBYOIRBIT-UHFFFAOYSA-N

>  <substance_name>
4-tert-butylphenol

>  <casrn>
98-54-4

>  <Molecular weight>
150.21755981445312

>  <guideline>
OECD Guideline 404 (Acute Dermal Irritation / Corrosion)

>  <species>
rabbit

>  <type_of_coverage>
semiocclusive

>  <max_duration(hrs)>
4.0

>  <vehicle>
other: moistened with distilled water

>  <edema/ erythema score>
2.28571428571428

>  <max_score>
4.0

>  <reversibility>
0.0

>  <Outcome>
1

>  <StandardizerResult>
Remove Explicit Hydrogens (ID: RemoveExplicitH)
Dearomatize (ID: Dearomatize)
Clear Stereo (ID: ClearStereo)
Wedge Clean (ID: WedgeClean)
Mesomerize (ID: Mesomerize)
Tautomerize (ID: Tautomerize)
Aromatize (ID: Aromatize)
Add Explicit Hydrogens (ID: AddExplicitH)
Neutralize (ID: Neutralize)
Clean 2D (ID: Clean2D)


$$$$

  Mrv1812 02121911042D          

 28 28  0  0  0  0            999 V2000
    1.4241    2.2097    0.0000 N   0  0  0  0  0  0  0  0  0  0  0  0
    1.4241    1.3847    0.0000 C   0  0  0  0  0  0  0  0  0  0  0  0
    0.7096    0.9722    0.0000 C   0  0  0  0  0  0  0  0  0  0  0  0
   -0.0049    1.3847    0.0000 C   0  0  0  0  0  0  0  0  0  0  0  0
   -0.7193    0.9722    0.0000 C   0  0  0  0  0  0  0  0  0  0  0  0
   -0.7193    0.1472    0.0000 C   0  0  0  0  0  0  0  0  0  0  0  0
   -0.0049   -0.2653    0.0000 C   0  0  0  0  0  0  0  0  0  0  0  0
   -0.0049   -1.0903    0.0000 C   0  0  0  0  0  0  0  0  0  0  0  0
    0.7096   -1.5028    0.0000 N   0  0  0  0  0  0  0  0  0  0  0  0
    0.7096    0.1472    0.0000 C   0  0  0  0  0  0  0  0  0  0  0  0
    2.1386    2.6222    0.0000 H   0  0  0  0  0  0  0  0  0  0  0  0
    0.7096    2.6222    0.0000 H   0  0  0  0  0  0  0  0  0  0  0  0
    1.8774    0.6954    0.0000 H   0  0  0  0  0  0  0  0  0  0  0  0
    2.2477    1.3367    0.0000 H   0  0  0  0  0  0  0  0  0  0  0  0
    0.7096    1.7972    0.0000 H   0  0  0  0  0  0  0  0  0  0  0  0
   -0.1481    2.1971    0.0000 H   0  0  0  0  0  0  0  0  0  0  0  0
   -0.6368    1.9150    0.0000 H   0  0  0  0  0  0  0  0  0  0  0  0
   -1.4784    1.2953    0.0000 H   0  0  0  0  0  0  0  0  0  0  0  0
   -1.5037    0.7165    0.0000 H   0  0  0  0  0  0  0  0  0  0  0  0
   -1.3838   -0.3418    0.0000 H   0  0  0  0  0  0  0  0  0  0  0  0
   -0.8954   -0.6588    0.0000 H   0  0  0  0  0  0  0  0  0  0  0  0
   -0.7193   -0.6778    0.0000 H   0  0  0  0  0  0  0  0  0  0  0  0
   -0.6368   -1.6206    0.0000 H   0  0  0  0  0  0  0  0  0  0  0  0
   -0.1481   -1.9028    0.0000 H   0  0  0  0  0  0  0  0  0  0  0  0
    1.3737   -1.9923    0.0000 H   0  0  0  0  0  0  0  0  0  0  0  0
    1.4139   -1.0731    0.0000 H   0  0  0  0  0  0  0  0  0  0  0  0
    1.1630   -0.5421    0.0000 H   0  0  0  0  0  0  0  0  0  0  0  0
    1.5332    0.0992    0.0000 H   0  0  0  0  0  0  0  0  0  0  0  0
  1  2  1  0  0  0  0
  2  3  1  0  0  0  0
  4  3  1  0  0  0  0
  5  4  1  0  0  0  0
  6  5  1  0  0  0  0
  7  6  1  0  0  0  0
  7  8  1  0  0  0  0
  8  9  1  0  0  0  0
 10  7  1  0  0  0  0
  3 10  1  0  0  0  0
  1 11  1  0  0  0  0
  1 12  1  0  0  0  0
  2 13  1  0  0  0  0
  2 14  1  0  0  0  0
  3 15  1  0  0  0  0
  4 16  1  0  0  0  0
  4 17  1  0  0  0  0
  5 18  1  0  0  0  0
  5 19  1  0  0  0  0
  6 20  1  0  0  0  0
  6 21  1  0  0  0  0
  7 22  1  0  0  0  0
  8 23  1  0  0  0  0
  8 24  1  0  0  0  0
  9 25  1  0  0  0  0
  9 26  1  0  0  0  0
 10 27  1  0  0  0  0
 10 28  1  0  0  0  0
M  END
>  <id_input>
3817

>  <InChIKey>
QLBRROYTTDFLDX-UHFFFAOYSA-N

>  <substance_name>
[3-(aminomethyl)cyclohexyl]methanamine

>  <casrn>
2579-20-6

>  <Molecular weight>
144.25779724121094

>  <guideline>
OECD Guideline 404 (Acute Dermal Irritation / Corrosion)

>  <species>
rabbit

>  <type_of_coverage>
semiocclusive

>  <max_duration(hrs)>
0.05

>  <vehicle>
unchanged (no vehicle)

>  <edema/ erythema score>
4.0

>  <reversibility>
1.0

>  <Outcome>
1

>  <StandardizerResult>
Remove Explicit Hydrogens (ID: RemoveExplicitH)
Clear Stereo (ID: ClearStereo)
Wedge Clean (ID: WedgeClean)
Mesomerize (ID: Mesomerize)
Tautomerize (ID: Tautomerize)
Add Explicit Hydrogens (ID: AddExplicitH)
Neutralize (ID: Neutralize)
Clean 2D (ID: Clean2D)


$$$$

  Mrv1812 02121911042D          

 48 48  0  0  0  0            999 V2000
   -0.6183    4.4613    0.0000 C   0  0  0  0  0  0  0  0  0  0  0  0
   -0.6183    3.6363    0.0000 C   0  0  0  0  0  0  0  0  0  0  0  0
   -1.3327    3.2238    0.0000 C   0  0  0  0  0  0  0  0  0  0  0  0
    0.0962    3.2238    0.0000 C   0  0  0  0  0  0  0  0  0  0  0  0
    0.0962    2.3988    0.0000 O   0  0  0  0  0  0  0  0  0  0  0  0
    0.8107    1.9863    0.0000 C   0  0  0  0  0  0  0  0  0  0  0  0
    1.5251    2.3988    0.0000 O   0  0  0  0  0  0  0  0  0  0  0  0
    0.8107    1.1613    0.0000 C   0  0  0  0  0  0  0  0  0  0  0  0
    0.0962    0.7488    0.0000 C   0  0  0  0  0  0  0  0  0  0  0  0
    0.0962   -0.0762    0.0000 C   0  0  0  0  0  0  0  0  0  0  0  0
    0.8107   -0.4887    0.0000 C   0  0  0  0  0  0  0  0  0  0  0  0
    1.5251   -0.0762    0.0000 C   0  0  0  0  0  0  0  0  0  0  0  0
    1.5251    0.7488    0.0000 C   0  0  0  0  0  0  0  0  0  0  0  0
    2.2396    1.1613    0.0000 C   0  0  0  0  0  0  0  0  0  0  0  0
    2.2396    1.9863    0.0000 O   0  0  0  0  0  0  0  0  0  0  0  0
    2.9541    0.7488    0.0000 O   0  0  0  0  0  0  0  0  0  0  0  0
    3.6686    1.1613    0.0000 C   0  0  0  0  0  0  0  0  0  0  0  0
    4.3830    0.7488    0.0000 C   0  0  0  0  0  0  0  0  0  0  0  0
    5.0975    1.1613    0.0000 C   0  0  0  0  0  0  0  0  0  0  0  0
    4.3830   -0.0762    0.0000 C   0  0  0  0  0  0  0  0  0  0  0  0
    0.2067    4.4613    0.0000 H   0  0  0  0  0  0  0  0  0  0  0  0
   -0.6183    5.2863    0.0000 H   0  0  0  0  0  0  0  0  0  0  0  0
   -1.4433    4.4613    0.0000 H   0  0  0  0  0  0  0  0  0  0  0  0
   -1.3327    4.0488    0.0000 H   0  0  0  0  0  0  0  0  0  0  0  0
   -2.1296    3.4373    0.0000 H   0  0  0  0  0  0  0  0  0  0  0  0
   -1.7452    2.5093    0.0000 H   0  0  0  0  0  0  0  0  0  0  0  0
   -0.7494    2.6404    0.0000 H   0  0  0  0  0  0  0  0  0  0  0  0
    0.9198    3.2718    0.0000 H   0  0  0  0  0  0  0  0  0  0  0  0
    0.5495    3.9131    0.0000 H   0  0  0  0  0  0  0  0  0  0  0  0
    0.0962    1.5738    0.0000 H   0  0  0  0  0  0  0  0  0  0  0  0
   -0.6790    1.0310    0.0000 H   0  0  0  0  0  0  0  0  0  0  0  0
   -0.6790    0.4666    0.0000 H   0  0  0  0  0  0  0  0  0  0  0  0
   -0.5632   -0.5721    0.0000 H   0  0  0  0  0  0  0  0  0  0  0  0
   -0.0745   -0.8833    0.0000 H   0  0  0  0  0  0  0  0  0  0  0  0
    0.9019   -1.3086    0.0000 H   0  0  0  0  0  0  0  0  0  0  0  0
    1.4207   -1.0442    0.0000 H   0  0  0  0  0  0  0  0  0  0  0  0
    1.9785   -0.7655    0.0000 H   0  0  0  0  0  0  0  0  0  0  0  0
    2.3487   -0.1242    0.0000 H   0  0  0  0  0  0  0  0  0  0  0  0
    2.2396    0.3363    0.0000 H   0  0  0  0  0  0  0  0  0  0  0  0
    4.0388    1.8985    0.0000 H   0  0  0  0  0  0  0  0  0  0  0  0
    3.2983    1.8985    0.0000 H   0  0  0  0  0  0  0  0  0  0  0  0
    4.3830    1.5738    0.0000 H   0  0  0  0  0  0  0  0  0  0  0  0
    5.3110    0.3644    0.0000 H   0  0  0  0  0  0  0  0  0  0  0  0
    5.9225    1.1613    0.0000 H   0  0  0  0  0  0  0  0  0  0  0  0
    5.3110    1.9582    0.0000 H   0  0  0  0  0  0  0  0  0  0  0  0
    3.5580   -0.0762    0.0000 H   0  0  0  0  0  0  0  0  0  0  0  0
    4.3830   -0.9012    0.0000 H   0  0  0  0  0  0  0  0  0  0  0  0
    5.2080   -0.0762    0.0000 H   0  0  0  0  0  0  0  0  0  0  0  0
  1  2  1  0  0  0  0
  2  3  1  0  0  0  0
  2  4  1  0  0  0  0
  4  5  1  0  0  0  0
  5  6  1  0  0  0  0
  6  7  2  0  0  0  0
  6  8  1  0  0  0  0
  9  8  1  0  0  0  0
 10  9  1  0  0  0  0
 11 10  1  0  0  0  0
 12 11  1  0  0  0  0
 13 12  1  0  0  0  0
 13 14  1  0  0  0  0
 14 15  2  0  0  0  0
 14 16  1  0  0  0  0
 16 17  1  0  0  0  0
 17 18  1  0  0  0  0
 18 19  1  0  0  0  0
 18 20  1  0  0  0  0
  8 13  1  0  0  0  0
  1 21  1  0  0  0  0
  1 22  1  0  0  0  0
  1 23  1  0  0  0  0
  2 24  1  0  0  0  0
  3 25  1  0  0  0  0
  3 26  1  0  0  0  0
  3 27  1  0  0  0  0
  4 28  1  0  0  0  0
  4 29  1  0  0  0  0
  8 30  1  0  0  0  0
  9 31  1  0  0  0  0
  9 32  1  0  0  0  0
 10 33  1  0  0  0  0
 10 34  1  0  0  0  0
 11 35  1  0  0  0  0
 11 36  1  0  0  0  0
 12 37  1  0  0  0  0
 12 38  1  0  0  0  0
 13 39  1  0  0  0  0
 17 40  1  0  0  0  0
 17 41  1  0  0  0  0
 18 42  1  0  0  0  0
 19 43  1  0  0  0  0
 19 44  1  0  0  0  0
 19 45  1  0  0  0  0
 20 46  1  0  0  0  0
 20 47  1  0  0  0  0
 20 48  1  0  0  0  0
M  END
>  <id_input>
1718

>  <InChIKey>
QUKHPBOCBWDYMW-UHFFFAOYSA-N

>  <substance_name>
1,2-bis(2-methylpropyl) cyclohexane-1,2-dicarboxylate

>  <casrn>
70969-58-3

>  <Molecular weight>
284.39111328125

>  <guideline>
OECD Guideline 404 (Acute Dermal Irritation / Corrosion)

>  <species>
rabbit

>  <type_of_coverage>
semiocclusive

>  <max_duration(hrs)>
4.0

>  <vehicle>
unchanged (no vehicle)

>  <edema/ erythema score>
2.0

>  <max_score>
4.0

>  <reversibility>
0.0

>  <Outcome>
1

>  <StandardizerResult>
Remove Explicit Hydrogens (ID: RemoveExplicitH)
Clear Stereo (ID: ClearStereo)
Wedge Clean (ID: WedgeClean)
Mesomerize (ID: Mesomerize)
Tautomerize (ID: Tautomerize)
Add Explicit Hydrogens (ID: AddExplicitH)
Neutralize (ID: Neutralize)
Clean 2D (ID: Clean2D)


$$$$

  Mrv1812 02121911042D          

 10  9  0  0  0  0            999 V2000
    1.1038   -0.3010    0.0000 C   0  0  0  0  0  0  0  0  0  0  0  0
    0.6913    0.4135    0.0000 C   0  0  0  0  0  0  0  0  0  0  0  0
   -0.1337    0.4135    0.0000 N   0  0  0  0  0  0  0  0  0  0  0  0
    0.3893   -0.7135    0.0000 H   0  0  0  0  0  0  0  0  0  0  0  0
    1.5163   -1.0155    0.0000 H   0  0  0  0  0  0  0  0  0  0  0  0
    1.8183    0.1115    0.0000 H   0  0  0  0  0  0  0  0  0  0  0  0
    1.3806    0.8668    0.0000 H   0  0  0  0  0  0  0  0  0  0  0  0
    0.7393    1.2371    0.0000 H   0  0  0  0  0  0  0  0  0  0  0  0
   -0.5462    1.1279    0.0000 H   0  0  0  0  0  0  0  0  0  0  0  0
   -0.5462   -0.3010    0.0000 H   0  0  0  0  0  0  0  0  0  0  0  0
  1  2  1  0  0  0  0
  2  3  1  0  0  0  0
  1  4  1  0  0  0  0
  1  5  1  0  0  0  0
  1  6  1  0  0  0  0
  2  7  1  0  0  0  0
  2  8  1  0  0  0  0
  3  9  1  0  0  0  0
  3 10  1  0  0  0  0
M  END
>  <id_input>
4312

>  <InChIKey>
QUSNBJAOOMFDIB-UHFFFAOYSA-N

>  <substance_name>
ethanamine

>  <casrn>
75-04-7

>  <Molecular weight>
45.08367919921875

>  <guideline>
other: in accordance with International Maritime Organization (I.M.O.) criteria

>  <species>
rabbit

>  <type_of_coverage>
semiocclusive

>  <max_duration(hrs)>
0.05

>  <vehicle>
not specified

>  <edema/ erythema score>
4.0

>  <max_score>
4.0

>  <reversibility>
1.0

>  <Outcome>
1

>  <StandardizerResult>
Remove Explicit Hydrogens (ID: RemoveExplicitH)
Mesomerize (ID: Mesomerize)
Tautomerize (ID: Tautomerize)
Add Explicit Hydrogens (ID: AddExplicitH)
Neutralize (ID: Neutralize)
Clean 2D (ID: Clean2D)


$$$$

  Mrv1812 02121911042D          

 42 42  0  0  0  0            999 V2000
    1.4821   -2.9028    0.0000 C   0  0  0  0  0  0  0  0  0  0  0  0
    0.9972   -2.2353    0.0000 C   0  0  0  0  0  0  0  0  0  0  0  0
    1.2521   -1.4507    0.0000 C   0  0  0  0  0  0  0  0  0  0  0  0
    0.5847   -0.9658    0.0000 C   0  0  0  0  0  0  0  0  0  0  0  0
   -0.0828   -1.4507    0.0000 C   0  0  0  0  0  0  0  0  0  0  0  0
    0.1722   -2.2353    0.0000 C   0  0  0  0  0  0  0  0  0  0  0  0
   -0.6348   -2.4068    0.0000 C   0  0  0  0  0  0  0  0  0  0  0  0
    0.2584   -3.0558    0.0000 C   0  0  0  0  0  0  0  0  0  0  0  0
   -0.8674   -1.1958    0.0000 C   0  0  0  0  0  0  0  0  0  0  0  0
   -1.0389   -0.3888    0.0000 C   0  0  0  0  0  0  0  0  0  0  0  0
   -1.8235   -0.1338    0.0000 C   0  0  0  0  0  0  0  0  0  0  0  0
   -1.5686    0.6508    0.0000 C   0  0  0  0  0  0  0  0  0  0  0  0
   -2.0785   -0.9185    0.0000 C   0  0  0  0  0  0  0  0  0  0  0  0
   -2.6082    0.1211    0.0000 C   0  0  0  0  0  0  0  0  0  0  0  0
   -3.2213   -0.4309    0.0000 C   0  0  0  0  0  0  0  0  0  0  0  0
   -2.7797    0.9281    0.0000 O   0  0  0  0  0  0  0  0  0  0  0  0
    0.8146   -3.3877    0.0000 H   0  0  0  0  0  0  0  0  0  0  0  0
    1.9670   -3.5702    0.0000 H   0  0  0  0  0  0  0  0  0  0  0  0
    2.1495   -2.4178    0.0000 H   0  0  0  0  0  0  0  0  0  0  0  0
    2.0367   -1.1958    0.0000 H   0  0  0  0  0  0  0  0  0  0  0  0
    0.9720   -0.2373    0.0000 H   0  0  0  0  0  0  0  0  0  0  0  0
    0.1973   -0.2373    0.0000 H   0  0  0  0  0  0  0  0  0  0  0  0
   -0.2118   -0.6359    0.0000 H   0  0  0  0  0  0  0  0  0  0  0  0
   -0.8063   -1.5999    0.0000 H   0  0  0  0  0  0  0  0  0  0  0  0
   -1.4418   -2.5784    0.0000 H   0  0  0  0  0  0  0  0  0  0  0  0
   -0.4633   -3.2138    0.0000 H   0  0  0  0  0  0  0  0  0  0  0  0
   -0.1793   -3.7551    0.0000 H   0  0  0  0  0  0  0  0  0  0  0  0
    0.4520   -3.8578    0.0000 H   0  0  0  0  0  0  0  0  0  0  0  0
    0.9535   -2.6114    0.0000 H   0  0  0  0  0  0  0  0  0  0  0  0
   -1.6791   -1.3432    0.0000 H   0  0  0  0  0  0  0  0  0  0  0  0
   -0.7934    0.3988    0.0000 H   0  0  0  0  0  0  0  0  0  0  0  0
   -1.0328    1.2781    0.0000 H   0  0  0  0  0  0  0  0  0  0  0  0
   -1.9431    1.3859    0.0000 H   0  0  0  0  0  0  0  0  0  0  0  0
   -2.3911    0.5861    0.0000 H   0  0  0  0  0  0  0  0  0  0  0  0
   -2.6338   -0.3084    0.0000 H   0  0  0  0  0  0  0  0  0  0  0  0
   -2.8836   -1.0987    0.0000 H   0  0  0  0  0  0  0  0  0  0  0  0
   -2.3207   -1.7071    0.0000 H   0  0  0  0  0  0  0  0  0  0  0  0
   -3.3928    0.3760    0.0000 H   0  0  0  0  0  0  0  0  0  0  0  0
   -3.9408   -0.0273    0.0000 H   0  0  0  0  0  0  0  0  0  0  0  0
   -3.9994   -0.7052    0.0000 H   0  0  0  0  0  0  0  0  0  0  0  0
   -3.5287   -1.1965    0.0000 H   0  0  0  0  0  0  0  0  0  0  0  0
   -3.2570    1.6010    0.0000 H   0  0  0  0  0  0  0  0  0  0  0  0
  1  2  1  0  0  0  0
  3  2  2  0  0  0  0
  4  3  1  0  0  0  0
  5  4  1  0  0  0  0
  6  5  1  0  0  0  0
  6  7  1  0  0  0  0
  6  8  1  0  0  0  0
  9  5  1  4  0  0  0
  9 10  2  0  0  0  0
 10 11  1  0  0  0  0
 11 12  1  0  0  0  0
 11 13  1  0  0  0  0
 11 14  1  0  0  0  0
 14 15  1  0  0  0  0
 14 16  1  0  0  0  0
  2  6  1  0  0  0  0
  1 17  1  0  0  0  0
  1 18  1  0  0  0  0
  1 19  1  0  0  0  0
  3 20  1  0  0  0  0
  4 21  1  0  0  0  0
  4 22  1  0  0  0  0
  5 23  1  0  0  0  0
  7 24  1  0  0  0  0
  7 25  1  0  0  0  0
  7 26  1  0  0  0  0
  8 27  1  0  0  0  0
  8 28  1  0  0  0  0
  8 29  1  0  0  0  0
  9 30  1  0  0  0  0
 10 31  1  0  0  0  0
 12 32  1  0  0  0  0
 12 33  1  0  0  0  0
 12 34  1  0  0  0  0
 13 35  1  0  0  0  0
 13 36  1  0  0  0  0
 13 37  1  0  0  0  0
 14 38  1  0  0  0  0
 15 39  1  0  0  0  0
 15 40  1  0  0  0  0
 15 41  1  0  0  0  0
 16 42  1  0  0  0  0
M  END
>  <id_input>
121

>  <InChIKey>
QZFSNJAQFWEXEA-UHFFFAOYSA-N

>  <substance_name>
(4E)-3,3-dimethyl-5-(2,2,3-trimethylcyclopent-3-en-1-yl)pent-4-en-2-ol

>  <casrn>
107898-54-4

>  <Molecular weight>
222.36634826660156

>  <guideline>
other: Annex V

>  <species>
rabbit

>  <type_of_coverage>
semiocclusive

>  <max_duration(hrs)>
4.0

>  <vehicle>
other: None, liquid substance used.

>  <edema/ erythema score>
2.75666666666666

>  <reversibility>
1.0

>  <Outcome>
1

>  <StandardizerResult>
Remove Explicit Hydrogens (ID: RemoveExplicitH)
Clear Stereo (ID: ClearStereo)
Wedge Clean (ID: WedgeClean)
Mesomerize (ID: Mesomerize)
Tautomerize (ID: Tautomerize)
Add Explicit Hydrogens (ID: AddExplicitH)
Neutralize (ID: Neutralize)
Clean 2D (ID: Clean2D)


$$$$

  Mrv1812 02121911042D          

 20 19  0  0  0  0            999 V2000
   -2.0362    1.2994    0.0000 C   0  0  0  0  0  0  0  0  0  0  0  0
   -1.3218    1.7119    0.0000 C   0  0  0  0  0  0  0  0  0  0  0  0
   -1.3218    2.5369    0.0000 C   0  0  0  0  0  0  0  0  0  0  0  0
   -0.6073    1.2994    0.0000 C   0  0  0  0  0  0  0  0  0  0  0  0
   -0.6073    0.4744    0.0000 O   0  0  0  0  0  0  0  0  0  0  0  0
    0.1072    1.7119    0.0000 O   0  0  0  0  0  0  0  0  0  0  0  0
    0.8216    1.2994    0.0000 C   0  0  0  0  0  0  0  0  0  0  0  0
    1.5361    1.7119    0.0000 C   0  0  0  0  0  0  0  0  0  0  0  0
    2.2506    1.2994    0.0000 N   0  0  0  0  0  0  0  0  0  0  0  0
    2.9651    1.7119    0.0000 C   0  0  0  0  0  0  0  0  0  0  0  0
    3.6795    2.1244    0.0000 O   0  0  0  0  0  0  0  0  0  0  0  0
   -2.4487    2.0139    0.0000 H   0  0  0  0  0  0  0  0  0  0  0  0
   -2.7507    0.8869    0.0000 H   0  0  0  0  0  0  0  0  0  0  0  0
   -1.6237    0.5849    0.0000 H   0  0  0  0  0  0  0  0  0  0  0  0
   -0.6073    2.9494    0.0000 H   0  0  0  0  0  0  0  0  0  0  0  0
   -2.0362    2.9494    0.0000 H   0  0  0  0  0  0  0  0  0  0  0  0
    0.4514    0.5622    0.0000 H   0  0  0  0  0  0  0  0  0  0  0  0
    1.1919    0.5622    0.0000 H   0  0  0  0  0  0  0  0  0  0  0  0
    1.9064    2.4491    0.0000 H   0  0  0  0  0  0  0  0  0  0  0  0
    1.1658    2.4491    0.0000 H   0  0  0  0  0  0  0  0  0  0  0  0
  1  2  1  0  0  0  0
  2  3  2  0  0  0  0
  2  4  1  0  0  0  0
  4  5  2  0  0  0  0
  4  6  1  0  0  0  0
  6  7  1  0  0  0  0
  7  8  1  0  0  0  0
  9  8  1  4  0  0  0
  9 10  2  0  0  0  0
 10 11  2  0  0  0  0
  1 12  1  0  0  0  0
  1 13  1  0  0  0  0
  1 14  1  0  0  0  0
  3 15  1  0  0  0  0
  3 16  1  0  0  0  0
  7 17  1  0  0  0  0
  7 18  1  0  0  0  0
  8 19  1  0  0  0  0
  8 20  1  0  0  0  0
M  END
>  <id_input>
2513

>  <InChIKey>
RBQRWNWVPQDTJJ-UHFFFAOYSA-N

>  <substance_name>
2-isocyanatoethyl 2-methylprop-2-enoate

>  <casrn>
30674-80-7

>  <Molecular weight>
155.15126037597656

>  <guideline>
OECD Guideline 404 (Acute Dermal Irritation / Corrosion)

>  <species>
rabbit

>  <type_of_coverage>
semiocclusive

>  <max_duration(hrs)>
4.0

>  <vehicle>
unchanged (no vehicle)

>  <edema/ erythema score>
2.5

>  <max_score>
4.0

>  <reversibility>
0.0

>  <Outcome>
1

>  <StandardizerResult>
Remove Explicit Hydrogens (ID: RemoveExplicitH)
Clear Stereo (ID: ClearStereo)
Wedge Clean (ID: WedgeClean)
Mesomerize (ID: Mesomerize)
Tautomerize (ID: Tautomerize)
Add Explicit Hydrogens (ID: AddExplicitH)
Neutralize (ID: Neutralize)
Clean 2D (ID: Clean2D)


$$$$

  Mrv1812 02121911042D          

 35 34  0  0  0  0            999 V2000
   -0.2406   -0.3592    0.0000 C   0  0  0  0  0  0  0  0  0  0  0  0
    0.5844   -0.3592    0.0000 O   0  0  0  0  0  0  0  0  0  0  0  0
    0.9969    0.3553    0.0000 C   0  0  0  0  0  0  0  0  0  0  0  0
    0.5844    1.0697    0.0000 O   0  0  0  0  0  0  0  0  0  0  0  0
    0.9969    1.7842    0.0000 C   0  0  0  0  0  0  0  0  0  0  0  0
    1.8219    0.3553    0.0000 C   0  0  0  0  0  0  0  0  0  0  0  0
    1.8219   -0.4697    0.0000 C   0  0  0  0  0  0  0  0  0  0  0  0
    1.8219    1.1803    0.0000 C   0  0  0  0  0  0  0  0  0  0  0  0
    2.6469    0.3553    0.0000 C   0  0  0  0  0  0  0  0  0  0  0  0
    3.0594    1.0697    0.0000 C   0  0  0  0  0  0  0  0  0  0  0  0
    3.8844    1.0697    0.0000 C   0  0  0  0  0  0  0  0  0  0  0  0
    4.2969    1.7842    0.0000 C   0  0  0  0  0  0  0  0  0  0  0  0
    4.2969    0.3553    0.0000 C   0  0  0  0  0  0  0  0  0  0  0  0
   -0.2406    0.4658    0.0000 H   0  0  0  0  0  0  0  0  0  0  0  0
   -1.0656   -0.3592    0.0000 H   0  0  0  0  0  0  0  0  0  0  0  0
   -0.2406   -1.1842    0.0000 H   0  0  0  0  0  0  0  0  0  0  0  0
    0.1719    0.3553    0.0000 H   0  0  0  0  0  0  0  0  0  0  0  0
    1.7114    1.3717    0.0000 H   0  0  0  0  0  0  0  0  0  0  0  0
    1.4094    2.4987    0.0000 H   0  0  0  0  0  0  0  0  0  0  0  0
    0.2825    2.1967    0.0000 H   0  0  0  0  0  0  0  0  0  0  0  0
    0.9969   -0.4697    0.0000 H   0  0  0  0  0  0  0  0  0  0  0  0
    1.8219   -1.2947    0.0000 H   0  0  0  0  0  0  0  0  0  0  0  0
    2.6469   -0.4697    0.0000 H   0  0  0  0  0  0  0  0  0  0  0  0
    2.6382    1.0607    0.0000 H   0  0  0  0  0  0  0  0  0  0  0  0
    2.4691    1.6920    0.0000 H   0  0  0  0  0  0  0  0  0  0  0  0
    1.0251    0.9667    0.0000 H   0  0  0  0  0  0  0  0  0  0  0  0
    3.2789   -0.1750    0.0000 H   0  0  0  0  0  0  0  0  0  0  0  0
    3.4594    0.4985    0.0000 H   0  0  0  0  0  0  0  0  0  0  0  0
    3.3851    1.8277    0.0000 H   0  0  0  0  0  0  0  0  0  0  0  0
    4.8733    1.1939    0.0000 H   0  0  0  0  0  0  0  0  0  0  0  0
    5.0211    2.1796    0.0000 H   0  0  0  0  0  0  0  0  0  0  0  0
    4.1121    2.5882    0.0000 H   0  0  0  0  0  0  0  0  0  0  0  0
    3.9842   -0.4081    0.0000 H   0  0  0  0  0  0  0  0  0  0  0  0
    4.9740   -0.1162    0.0000 H   0  0  0  0  0  0  0  0  0  0  0  0
    4.9045    0.9134    0.0000 H   0  0  0  0  0  0  0  0  0  0  0  0
  1  2  1  0  0  0  0
  2  3  1  0  0  0  0
  3  4  1  0  0  0  0
  4  5  1  0  0  0  0
  3  6  1  0  0  0  0
  6  7  1  0  0  0  0
  6  8  1  0  0  0  0
  6  9  1  0  0  0  0
  9 10  1  0  0  0  0
 10 11  2  0  0  0  0
 11 12  1  0  0  0  0
 11 13  1  0  0  0  0
  1 14  1  0  0  0  0
  1 15  1  0  0  0  0
  1 16  1  0  0  0  0
  3 17  1  0  0  0  0
  5 18  1  0  0  0  0
  5 19  1  0  0  0  0
  5 20  1  0  0  0  0
  7 21  1  0  0  0  0
  7 22  1  0  0  0  0
  7 23  1  0  0  0  0
  8 24  1  0  0  0  0
  8 25  1  0  0  0  0
  8 26  1  0  0  0  0
  9 27  1  0  0  0  0
  9 28  1  0  0  0  0
 10 29  1  0  0  0  0
 12 30  1  0  0  0  0
 12 31  1  0  0  0  0
 12 32  1  0  0  0  0
 13 33  1  0  0  0  0
 13 34  1  0  0  0  0
 13 35  1  0  0  0  0
M  END
>  <id_input>
2990

>  <InChIKey>
RDHNTAXPFZIMDN-UHFFFAOYSA-N

>  <substance_name>
6,6-dimethoxy-2,5,5-trimethylhex-2-ene

>  <casrn>
67674-46-8

>  <Molecular weight>
186.2911834716797

>  <guideline>
OECD Guideline 404 (Acute Dermal Irritation / Corrosion)

>  <species>
rabbit

>  <type_of_coverage>
semiocclusive

>  <max_duration(hrs)>
4.0

>  <vehicle>
other: ethanol/diethylphthalat 1:1

>  <edema/ erythema score>
2.2475

>  <max_score>
4.0

>  <reversibility>
0.0

>  <Outcome>
1

>  <StandardizerResult>
Remove Explicit Hydrogens (ID: RemoveExplicitH)
Clear Stereo (ID: ClearStereo)
Wedge Clean (ID: WedgeClean)
Mesomerize (ID: Mesomerize)
Tautomerize (ID: Tautomerize)
Add Explicit Hydrogens (ID: AddExplicitH)
Neutralize (ID: Neutralize)
Clean 2D (ID: Clean2D)


$$$$

  Mrv1812 02121911042D          

 25 24  0  0  0  0            999 V2000
    0.0001    0.3960    0.0000 C   0  0  0  0  0  0  0  0  0  0  0  0
    0.7145   -0.0165    0.0000 C   0  0  0  0  0  0  0  0  0  0  0  0
    1.4290    0.3960    0.0000 C   0  0  0  0  0  0  0  0  0  0  0  0
    2.1435   -0.0165    0.0000 C   0  0  0  0  0  0  0  0  0  0  0  0
    2.8579    0.3960    0.0000 C   0  0  0  0  0  0  0  0  0  0  0  0
    3.5724   -0.0165    0.0000 C   0  0  0  0  0  0  0  0  0  0  0  0
    4.2869    0.3960    0.0000 C   0  0  0  0  0  0  0  0  0  0  0  0
    5.0014   -0.0165    0.0000 C   0  0  0  0  0  0  0  0  0  0  0  0
    5.7158    0.3960    0.0000 Cl  0  0  0  0  0  0  0  0  0  0  0  0
    5.0014   -0.8415    0.0000 O   0  0  0  0  0  0  0  0  0  0  0  0
    0.4126    1.1105    0.0000 H   0  0  0  0  0  0  0  0  0  0  0  0
   -0.7144    0.8085    0.0000 H   0  0  0  0  0  0  0  0  0  0  0  0
   -0.4124   -0.3185    0.0000 H   0  0  0  0  0  0  0  0  0  0  0  0
    0.3443   -0.7537    0.0000 H   0  0  0  0  0  0  0  0  0  0  0  0
    1.0848   -0.7537    0.0000 H   0  0  0  0  0  0  0  0  0  0  0  0
    1.7993    1.1332    0.0000 H   0  0  0  0  0  0  0  0  0  0  0  0
    1.0587    1.1332    0.0000 H   0  0  0  0  0  0  0  0  0  0  0  0
    1.7732   -0.7537    0.0000 H   0  0  0  0  0  0  0  0  0  0  0  0
    2.5137   -0.7537    0.0000 H   0  0  0  0  0  0  0  0  0  0  0  0
    3.2282    1.1332    0.0000 H   0  0  0  0  0  0  0  0  0  0  0  0
    2.4877    1.1332    0.0000 H   0  0  0  0  0  0  0  0  0  0  0  0
    3.2022   -0.7537    0.0000 H   0  0  0  0  0  0  0  0  0  0  0  0
    3.9427   -0.7537    0.0000 H   0  0  0  0  0  0  0  0  0  0  0  0
    4.6571    1.1332    0.0000 H   0  0  0  0  0  0  0  0  0  0  0  0
    3.9166    1.1332    0.0000 H   0  0  0  0  0  0  0  0  0  0  0  0
  1  2  1  0  0  0  0
  2  3  1  0  0  0  0
  3  4  1  0  0  0  0
  4  5  1  0  0  0  0
  5  6  1  0  0  0  0
  6  7  1  0  0  0  0
  7  8  1  0  0  0  0
  8  9  1  0  0  0  0
  8 10  2  0  0  0  0
  1 11  1  0  0  0  0
  1 12  1  0  0  0  0
  1 13  1  0  0  0  0
  2 14  1  0  0  0  0
  2 15  1  0  0  0  0
  3 16  1  0  0  0  0
  3 17  1  0  0  0  0
  4 18  1  0  0  0  0
  4 19  1  0  0  0  0
  5 20  1  0  0  0  0
  5 21  1  0  0  0  0
  6 22  1  0  0  0  0
  6 23  1  0  0  0  0
  7 24  1  0  0  0  0
  7 25  1  0  0  0  0
M  END
>  <id_input>
4728

>  <InChIKey>
REEZZSHJLXOIHL-UHFFFAOYSA-N

>  <substance_name>
octanoyl chloride

>  <casrn>
111-64-8

>  <Molecular weight>
162.6571044921875

>  <guideline>
OECD Guideline 404 (Acute Dermal Irritation / Corrosion)

>  <species>
rabbit

>  <type_of_coverage>
semiocclusive

>  <max_duration(hrs)>
4.0

>  <vehicle>
unchanged (no vehicle)

>  <edema/ erythema score>
3.44666666666666

>  <max_score>
4.0

>  <reversibility>
1.0

>  <Outcome>
1

>  <StandardizerResult>
Remove Explicit Hydrogens (ID: RemoveExplicitH)
Clear Stereo (ID: ClearStereo)
Wedge Clean (ID: WedgeClean)
Mesomerize (ID: Mesomerize)
Tautomerize (ID: Tautomerize)
Add Explicit Hydrogens (ID: AddExplicitH)
Neutralize (ID: Neutralize)
Clean 2D (ID: Clean2D)


$$$$

  Mrv1812 02121911042D          

 58 57  0  0  0  0            999 V2000
   -0.0002    0.4067    0.0000 C   0  0  0  0  0  0  0  0  0  0  0  0
    0.7142   -0.0058    0.0000 C   0  0  0  0  0  0  0  0  0  0  0  0
    1.4287    0.4067    0.0000 C   0  0  0  0  0  0  0  0  0  0  0  0
    2.1432   -0.0058    0.0000 C   0  0  0  0  0  0  0  0  0  0  0  0
    2.8577    0.4067    0.0000 C   0  0  0  0  0  0  0  0  0  0  0  0
    3.5721   -0.0058    0.0000 C   0  0  0  0  0  0  0  0  0  0  0  0
    4.2866    0.4067    0.0000 C   0  0  0  0  0  0  0  0  0  0  0  0
    5.0011   -0.0058    0.0000 C   0  0  0  0  0  0  0  0  0  0  0  0
    5.7155    0.4067    0.0000 C   0  0  0  0  0  0  0  0  0  0  0  0
    6.4300   -0.0058    0.0000 C   0  0  0  0  0  0  0  0  0  0  0  0
    7.1445    0.4067    0.0000 C   0  0  0  0  0  0  0  0  0  0  0  0
    7.8590   -0.0058    0.0000 C   0  0  0  0  0  0  0  0  0  0  0  0
    8.5734    0.4067    0.0000 C   0  0  0  0  0  0  0  0  0  0  0  0
    9.2879   -0.0058    0.0000 C   0  0  0  0  0  0  0  0  0  0  0  0
   10.0024    0.4067    0.0000 C   0  0  0  0  0  0  0  0  0  0  0  0
   10.7168   -0.0058    0.0000 C   0  0  0  0  0  0  0  0  0  0  0  0
   11.4313    0.4067    0.0000 C   0  0  0  0  0  0  0  0  0  0  0  0
   12.1458   -0.0058    0.0000 C   0  0  0  0  0  0  0  0  0  0  0  0
   12.8603    0.4067    0.0000 N   0  0  0  0  0  0  0  0  0  0  0  0
    0.4123    1.1212    0.0000 H   0  0  0  0  0  0  0  0  0  0  0  0
   -0.7147    0.8192    0.0000 H   0  0  0  0  0  0  0  0  0  0  0  0
   -0.4127   -0.3078    0.0000 H   0  0  0  0  0  0  0  0  0  0  0  0
    0.3440   -0.7430    0.0000 H   0  0  0  0  0  0  0  0  0  0  0  0
    1.0845   -0.7430    0.0000 H   0  0  0  0  0  0  0  0  0  0  0  0
    1.7990    1.1440    0.0000 H   0  0  0  0  0  0  0  0  0  0  0  0
    1.0585    1.1440    0.0000 H   0  0  0  0  0  0  0  0  0  0  0  0
    1.7729   -0.7430    0.0000 H   0  0  0  0  0  0  0  0  0  0  0  0
    2.5134   -0.7430    0.0000 H   0  0  0  0  0  0  0  0  0  0  0  0
    3.2279    1.1440    0.0000 H   0  0  0  0  0  0  0  0  0  0  0  0
    2.4874    1.1440    0.0000 H   0  0  0  0  0  0  0  0  0  0  0  0
    3.2019   -0.7430    0.0000 H   0  0  0  0  0  0  0  0  0  0  0  0
    3.9424   -0.7430    0.0000 H   0  0  0  0  0  0  0  0  0  0  0  0
    4.6569    1.1440    0.0000 H   0  0  0  0  0  0  0  0  0  0  0  0
    3.9163    1.1440    0.0000 H   0  0  0  0  0  0  0  0  0  0  0  0
    4.6308   -0.7430    0.0000 H   0  0  0  0  0  0  0  0  0  0  0  0
    5.3713   -0.7430    0.0000 H   0  0  0  0  0  0  0  0  0  0  0  0
    6.0858    1.1440    0.0000 H   0  0  0  0  0  0  0  0  0  0  0  0
    5.3453    1.1440    0.0000 H   0  0  0  0  0  0  0  0  0  0  0  0
    6.0598   -0.7430    0.0000 H   0  0  0  0  0  0  0  0  0  0  0  0
    6.8003   -0.7430    0.0000 H   0  0  0  0  0  0  0  0  0  0  0  0
    7.5147    1.1440    0.0000 H   0  0  0  0  0  0  0  0  0  0  0  0
    6.7742    1.1440    0.0000 H   0  0  0  0  0  0  0  0  0  0  0  0
    7.4887   -0.7430    0.0000 H   0  0  0  0  0  0  0  0  0  0  0  0
    8.2292   -0.7430    0.0000 H   0  0  0  0  0  0  0  0  0  0  0  0
    8.9437    1.1440    0.0000 H   0  0  0  0  0  0  0  0  0  0  0  0
    8.2032    1.1440    0.0000 H   0  0  0  0  0  0  0  0  0  0  0  0
    8.9176   -0.7430    0.0000 H   0  0  0  0  0  0  0  0  0  0  0  0
    9.6582   -0.7430    0.0000 H   0  0  0  0  0  0  0  0  0  0  0  0
   10.3726    1.1440    0.0000 H   0  0  0  0  0  0  0  0  0  0  0  0
    9.6321    1.1440    0.0000 H   0  0  0  0  0  0  0  0  0  0  0  0
   10.3466   -0.7430    0.0000 H   0  0  0  0  0  0  0  0  0  0  0  0
   11.0871   -0.7430    0.0000 H   0  0  0  0  0  0  0  0  0  0  0  0
   11.8016    1.1440    0.0000 H   0  0  0  0  0  0  0  0  0  0  0  0
   11.0611    1.1440    0.0000 H   0  0  0  0  0  0  0  0  0  0  0  0
   11.7755   -0.7430    0.0000 H   0  0  0  0  0  0  0  0  0  0  0  0
   12.5160   -0.7430    0.0000 H   0  0  0  0  0  0  0  0  0  0  0  0
   13.5747   -0.0058    0.0000 H   0  0  0  0  0  0  0  0  0  0  0  0
   12.8603    1.2317    0.0000 H   0  0  0  0  0  0  0  0  0  0  0  0
  1  2  1  0  0  0  0
  2  3  1  0  0  0  0
  3  4  1  0  0  0  0
  4  5  1  0  0  0  0
  5  6  1  0  0  0  0
  6  7  1  0  0  0  0
  7  8  1  0  0  0  0
  8  9  1  0  0  0  0
  9 10  1  0  0  0  0
 10 11  1  0  0  0  0
 11 12  1  0  0  0  0
 12 13  1  0  0  0  0
 13 14  1  0  0  0  0
 14 15  1  0  0  0  0
 15 16  1  0  0  0  0
 16 17  1  0  0  0  0
 17 18  1  0  0  0  0
 18 19  1  0  0  0  0
  1 20  1  0  0  0  0
  1 21  1  0  0  0  0
  1 22  1  0  0  0  0
  2 23  1  0  0  0  0
  2 24  1  0  0  0  0
  3 25  1  0  0  0  0
  3 26  1  0  0  0  0
  4 27  1  0  0  0  0
  4 28  1  0  0  0  0
  5 29  1  0  0  0  0
  5 30  1  0  0  0  0
  6 31  1  0  0  0  0
  6 32  1  0  0  0  0
  7 33  1  0  0  0  0
  7 34  1  0  0  0  0
  8 35  1  0  0  0  0
  8 36  1  0  0  0  0
  9 37  1  0  0  0  0
  9 38  1  0  0  0  0
 10 39  1  0  0  0  0
 10 40  1  0  0  0  0
 11 41  1  0  0  0  0
 11 42  1  0  0  0  0
 12 43  1  0  0  0  0
 12 44  1  0  0  0  0
 13 45  1  0  0  0  0
 13 46  1  0  0  0  0
 14 47  1  0  0  0  0
 14 48  1  0  0  0  0
 15 49  1  0  0  0  0
 15 50  1  0  0  0  0
 16 51  1  0  0  0  0
 16 52  1  0  0  0  0
 17 53  1  0  0  0  0
 17 54  1  0  0  0  0
 18 55  1  0  0  0  0
 18 56  1  0  0  0  0
 19 57  1  0  0  0  0
 19 58  1  0  0  0  0
M  END
>  <id_input>
4710

>  <InChIKey>
REYJJPSVUYRZGE-UHFFFAOYSA-N

>  <substance_name>
octadecan-1-amine

>  <casrn>
124-30-1

>  <Molecular weight>
269.50897216796875

>  <guideline>
OECD Guideline 404 (Acute Dermal Irritation / Corrosion)

>  <species>
rabbit

>  <type_of_coverage>
semiocclusive

>  <max_duration(hrs)>
4.0

>  <vehicle>
other: PEG 400 (Riedel de Haen AG; Ch-B 2322)

>  <edema/ erythema score>
3.0

>  <max_score>
3.0

>  <reversibility>
0.0

>  <Outcome>
1

>  <StandardizerResult>
Remove Explicit Hydrogens (ID: RemoveExplicitH)
Clear Stereo (ID: ClearStereo)
Wedge Clean (ID: WedgeClean)
Mesomerize (ID: Mesomerize)
Tautomerize (ID: Tautomerize)
Add Explicit Hydrogens (ID: AddExplicitH)
Neutralize (ID: Neutralize)
Clean 2D (ID: Clean2D)


$$$$

  Mrv1812 02121911042D          

 29 30  0  0  0  0            999 V2000
   -1.7225    1.4030    0.0000 C   0  0  0  0  0  0  0  0  0  0  0  0
   -1.0081    1.8155    0.0000 C   0  0  0  0  0  0  0  0  0  0  0  0
   -1.0081    2.6405    0.0000 C   0  0  0  0  0  0  0  0  0  0  0  0
   -0.2936    1.4030    0.0000 C   0  0  0  0  0  0  0  0  0  0  0  0
    0.4209    1.8155    0.0000 C   0  0  0  0  0  0  0  0  0  0  0  0
    1.1354    1.4030    0.0000 C   0  0  0  0  0  0  0  0  0  0  0  0
    1.7804    1.9174    0.0000 O   0  0  0  0  0  0  0  0  0  0  0  0
    2.5847    1.7338    0.0000 C   0  0  0  0  0  0  0  0  0  0  0  0
    2.9426    0.9905    0.0000 C   0  0  0  0  0  0  0  0  0  0  0  0
    3.7676    0.9905    0.0000 O   0  0  0  0  0  0  0  0  0  0  0  0
    2.5847    0.2472    0.0000 C   0  0  0  0  0  0  0  0  0  0  0  0
    1.7804    0.0636    0.0000 O   0  0  0  0  0  0  0  0  0  0  0  0
    1.1354    0.5780    0.0000 C   0  0  0  0  0  0  0  0  0  0  0  0
    0.4209    0.1655    0.0000 C   0  0  0  0  0  0  0  0  0  0  0  0
   -0.2936    0.5780    0.0000 C   0  0  0  0  0  0  0  0  0  0  0  0
   -2.1350    2.1175    0.0000 H   0  0  0  0  0  0  0  0  0  0  0  0
   -2.4370    0.9905    0.0000 H   0  0  0  0  0  0  0  0  0  0  0  0
   -1.3100    0.6885    0.0000 H   0  0  0  0  0  0  0  0  0  0  0  0
   -1.7225    2.2280    0.0000 H   0  0  0  0  0  0  0  0  0  0  0  0
   -0.2112    2.4270    0.0000 H   0  0  0  0  0  0  0  0  0  0  0  0
   -0.5956    3.3550    0.0000 H   0  0  0  0  0  0  0  0  0  0  0  0
   -1.5914    3.2239    0.0000 H   0  0  0  0  0  0  0  0  0  0  0  0
    0.9177    2.4741    0.0000 H   0  0  0  0  0  0  0  0  0  0  0  0
    3.3280    2.0917    0.0000 H   0  0  0  0  0  0  0  0  0  0  0  0
    2.7683    2.5381    0.0000 H   0  0  0  0  0  0  0  0  0  0  0  0
    2.7683   -0.5571    0.0000 H   0  0  0  0  0  0  0  0  0  0  0  0
    3.3280   -0.1108    0.0000 H   0  0  0  0  0  0  0  0  0  0  0  0
    0.4209   -0.6595    0.0000 H   0  0  0  0  0  0  0  0  0  0  0  0
   -1.0081    0.1655    0.0000 H   0  0  0  0  0  0  0  0  0  0  0  0
  1  2  1  0  0  0  0
  2  3  1  0  0  0  0
  2  4  1  0  0  0  0
  5  4  4  0  0  0  0
  6  5  4  0  0  0  0
  6  7  1  0  0  0  0
  7  8  1  0  0  0  0
  8  9  1  0  0  0  0
  9 10  2  0  0  0  0
  9 11  1  0  0  0  0
 11 12  1  0  0  0  0
 12 13  1  0  0  0  0
 14 13  4  0  0  0  0
 15 14  4  0  0  0  0
  4 15  4  0  0  0  0
 13  6  4  0  0  0  0
  1 16  1  0  0  0  0
  1 17  1  0  0  0  0
  1 18  1  0  0  0  0
  2 19  1  0  0  0  0
  3 20  1  0  0  0  0
  3 21  1  0  0  0  0
  3 22  1  0  0  0  0
  5 23  1  0  0  0  0
  8 24  1  0  0  0  0
  8 25  1  0  0  0  0
 11 26  1  0  0  0  0
 11 27  1  0  0  0  0
 14 28  1  0  0  0  0
 15 29  1  0  0  0  0
M  END
>  <id_input>
5542

>  <InChIKey>
RFSYHLFFESXTQI-UHFFFAOYSA-N

>  <substance_name>
unnamed [950919-28-5]

>  <casrn>
950919-28-5

>  <Molecular weight>
206.23776245117188

>  <guideline>
OECD Guideline 404 (Acute Dermal Irritation / Corrosion)

>  <species>
rabbit

>  <type_of_coverage>
semiocclusive

>  <max_duration(hrs)>
4.0

>  <vehicle>
other: test material was moistened with distilled water

>  <edema/ erythema score>
1.66666666666666

>  <max_score>
4.0

>  <reversibility>
0.0

>  <Outcome>
1

>  <StandardizerResult>
Remove Explicit Hydrogens (ID: RemoveExplicitH)
Dearomatize (ID: Dearomatize)
Clear Stereo (ID: ClearStereo)
Wedge Clean (ID: WedgeClean)
Mesomerize (ID: Mesomerize)
Tautomerize (ID: Tautomerize)
Aromatize (ID: Aromatize)
Add Explicit Hydrogens (ID: AddExplicitH)
Neutralize (ID: Neutralize)
Clean 2D (ID: Clean2D)


$$$$

  Mrv1812 02121911042D          

 25 24  0  0  0  0            999 V2000
   -0.0001    0.0021    0.0000 C   0  0  0  0  0  0  0  0  0  0  0  0
    0.7144    0.4146    0.0000 C   0  0  0  0  0  0  0  0  0  0  0  0
    1.4288    0.0021    0.0000 C   0  0  0  0  0  0  0  0  0  0  0  0
    2.1433    0.4146    0.0000 C   0  0  0  0  0  0  0  0  0  0  0  0
    2.8578    0.0021    0.0000 C   0  0  0  0  0  0  0  0  0  0  0  0
    3.5723    0.4146    0.0000 C   0  0  0  0  0  0  0  0  0  0  0  0
    3.5723    1.2396    0.0000 O   0  0  0  0  0  0  0  0  0  0  0  0
    4.2867    0.0021    0.0000 C   0  0  0  0  0  0  0  0  0  0  0  0
    5.0012    0.4146    0.0000 C   0  0  0  0  0  0  0  0  0  0  0  0
   -0.4126    0.7166    0.0000 H   0  0  0  0  0  0  0  0  0  0  0  0
   -0.7146   -0.4104    0.0000 H   0  0  0  0  0  0  0  0  0  0  0  0
    0.4124   -0.7124    0.0000 H   0  0  0  0  0  0  0  0  0  0  0  0
    1.0846    1.1519    0.0000 H   0  0  0  0  0  0  0  0  0  0  0  0
    0.3441    1.1519    0.0000 H   0  0  0  0  0  0  0  0  0  0  0  0
    1.0586   -0.7351    0.0000 H   0  0  0  0  0  0  0  0  0  0  0  0
    1.7991   -0.7351    0.0000 H   0  0  0  0  0  0  0  0  0  0  0  0
    2.5136    1.1519    0.0000 H   0  0  0  0  0  0  0  0  0  0  0  0
    1.7731    1.1519    0.0000 H   0  0  0  0  0  0  0  0  0  0  0  0
    2.4875   -0.7351    0.0000 H   0  0  0  0  0  0  0  0  0  0  0  0
    3.2280   -0.7351    0.0000 H   0  0  0  0  0  0  0  0  0  0  0  0
    3.9165   -0.7351    0.0000 H   0  0  0  0  0  0  0  0  0  0  0  0
    4.6570   -0.7351    0.0000 H   0  0  0  0  0  0  0  0  0  0  0  0
    5.4137   -0.2999    0.0000 H   0  0  0  0  0  0  0  0  0  0  0  0
    5.7157    0.8271    0.0000 H   0  0  0  0  0  0  0  0  0  0  0  0
    4.5887    1.1291    0.0000 H   0  0  0  0  0  0  0  0  0  0  0  0
  1  2  1  0  0  0  0
  2  3  1  0  0  0  0
  3  4  1  0  0  0  0
  4  5  1  0  0  0  0
  5  6  1  0  0  0  0
  6  7  2  0  0  0  0
  6  8  1  0  0  0  0
  8  9  1  0  0  0  0
  1 10  1  0  0  0  0
  1 11  1  0  0  0  0
  1 12  1  0  0  0  0
  2 13  1  0  0  0  0
  2 14  1  0  0  0  0
  3 15  1  0  0  0  0
  3 16  1  0  0  0  0
  4 17  1  0  0  0  0
  4 18  1  0  0  0  0
  5 19  1  0  0  0  0
  5 20  1  0  0  0  0
  8 21  1  0  0  0  0
  8 22  1  0  0  0  0
  9 23  1  0  0  0  0
  9 24  1  0  0  0  0
  9 25  1  0  0  0  0
M  END
>  <id_input>
4724

>  <InChIKey>
RHLVCLIPMVJYKS-UHFFFAOYSA-N

>  <substance_name>
octan-3-one

>  <casrn>
106-68-3

>  <Molecular weight>
128.2120361328125

>  <guideline>
OECD Guideline 404 (Acute Dermal Irritation / Corrosion)

>  <species>
rabbit

>  <type_of_coverage>
semiocclusive

>  <max_duration(hrs)>
4.0

>  <vehicle>
unchanged (no vehicle)

>  <edema/ erythema score>
2.0

>  <max_score>
4.0

>  <reversibility>
0.0

>  <Outcome>
1

>  <StandardizerResult>
Remove Explicit Hydrogens (ID: RemoveExplicitH)
Clear Stereo (ID: ClearStereo)
Wedge Clean (ID: WedgeClean)
Mesomerize (ID: Mesomerize)
Tautomerize (ID: Tautomerize)
Add Explicit Hydrogens (ID: AddExplicitH)
Neutralize (ID: Neutralize)
Clean 2D (ID: Clean2D)


$$$$

  Mrv1812 02121911042D          

 11 10  0  0  0  0            999 V2000
    1.2716    1.2668    0.0000 C   0  0  0  0  0  0  0  0  0  0  0  0
    0.8591    0.5523    0.0000 C   0  0  0  0  0  0  0  0  0  0  0  0
    1.2716   -0.1622    0.0000 O   0  0  0  0  0  0  0  0  0  0  0  0
    0.8591   -0.8766    0.0000 C   0  0  0  0  0  0  0  0  0  0  0  0
    1.2716   -1.5911    0.0000 Cl  0  0  0  0  0  0  0  0  0  0  0  0
    0.0341   -0.8766    0.0000 O   0  0  0  0  0  0  0  0  0  0  0  0
    1.9861    0.8543    0.0000 H   0  0  0  0  0  0  0  0  0  0  0  0
    1.6841    1.9813    0.0000 H   0  0  0  0  0  0  0  0  0  0  0  0
    0.5571    1.6793    0.0000 H   0  0  0  0  0  0  0  0  0  0  0  0
    0.1219    0.9226    0.0000 H   0  0  0  0  0  0  0  0  0  0  0  0
    0.1219    0.1821    0.0000 H   0  0  0  0  0  0  0  0  0  0  0  0
  1  2  1  0  0  0  0
  2  3  1  0  0  0  0
  3  4  1  0  0  0  0
  4  5  1  0  0  0  0
  4  6  2  0  0  0  0
  1  7  1  0  0  0  0
  1  8  1  0  0  0  0
  1  9  1  0  0  0  0
  2 10  1  0  0  0  0
  2 11  1  0  0  0  0
M  END
>  <id_input>
4354, 4355

>  <InChIKey>
RIFGWPKJUGCATF-UHFFFAOYSA-N

>  <substance_name>
ethyl chlorocarbonate

>  <casrn>
541-41-3

>  <Molecular weight>
108.52359771728516

>  <guideline>
OECD Guideline 404 (Acute Dermal Irritation / Corrosion)

>  <species>
rabbit

>  <type_of_coverage>
occlusive

>  <max_duration(hrs)>
4.0

>  <vehicle>
unchanged (no vehicle)

>  <edema/ erythema score>
3.066666666666665

>  <max_score>
4.0

>  <reversibility>
1.0

>  <Outcome>
1

>  <StandardizerResult>
Remove Explicit Hydrogens (ID: RemoveExplicitH)
Clear Stereo (ID: ClearStereo)
Wedge Clean (ID: WedgeClean)
Mesomerize (ID: Mesomerize)
Tautomerize (ID: Tautomerize)
Add Explicit Hydrogens (ID: AddExplicitH)
Neutralize (ID: Neutralize)
Clean 2D (ID: Clean2D)


$$$$

  Mrv1812 02121911042D          

 12 12  0  0  0  0            999 V2000
    1.5023    0.3045    0.0000 C   0  0  0  0  0  0  0  0  0  0  0  0
    0.7177    0.0495    0.0000 C   0  0  0  0  0  0  0  0  0  0  0  0
    0.0502    0.5344    0.0000 C   0  0  0  0  0  0  0  0  0  0  0  0
   -0.6172    0.0495    0.0000 N   0  0  0  0  0  0  0  0  0  0  0  0
   -0.3623   -0.7351    0.0000 N   0  0  0  0  0  0  0  0  0  0  0  0
    0.4627   -0.7351    0.0000 C   0  0  0  0  0  0  0  0  0  0  0  0
    1.7572   -0.4802    0.0000 H   0  0  0  0  0  0  0  0  0  0  0  0
    2.2869    0.5594    0.0000 H   0  0  0  0  0  0  0  0  0  0  0  0
    1.2473    1.0891    0.0000 H   0  0  0  0  0  0  0  0  0  0  0  0
    0.0502    1.3594    0.0000 H   0  0  0  0  0  0  0  0  0  0  0  0
   -1.4018    0.3045    0.0000 H   0  0  0  0  0  0  0  0  0  0  0  0
    0.9476   -1.4025    0.0000 H   0  0  0  0  0  0  0  0  0  0  0  0
  1  2  1  0  0  0  0
  3  2  4  0  0  0  0
  4  3  4  0  0  0  0
  5  4  4  0  0  0  0
  6  5  4  0  0  0  0
  2  6  4  0  0  0  0
  1  7  1  0  0  0  0
  1  8  1  0  0  0  0
  1  9  1  0  0  0  0
  3 10  1  0  0  0  0
  4 11  1  0  0  0  0
  6 12  1  0  0  0  0
M  END
>  <id_input>
2912

>  <InChIKey>
RIKMMFOAQPJVMX-UHFFFAOYSA-N

>  <substance_name>
4-methyl-1H-pyrazole

>  <casrn>
7554-65-6

>  <Molecular weight>
82.10384368896484

>  <guideline>
OECD Guideline 404 (Acute Dermal Irritation / Corrosion)

>  <species>
rabbit

>  <type_of_coverage>
semiocclusive

>  <max_duration(hrs)>
4.0

>  <vehicle>
unchanged (no vehicle)

>  <edema/ erythema score>
2.43333333333333

>  <max_score>
4.0

>  <reversibility>
0.0

>  <Outcome>
1

>  <StandardizerResult>
Remove Explicit Hydrogens (ID: RemoveExplicitH)
Dearomatize (ID: Dearomatize)
Clear Stereo (ID: ClearStereo)
Wedge Clean (ID: WedgeClean)
Mesomerize (ID: Mesomerize)
Tautomerize (ID: Tautomerize)
Aromatize (ID: Aromatize)
Add Explicit Hydrogens (ID: AddExplicitH)
Neutralize (ID: Neutralize)
Clean 2D (ID: Clean2D)


$$$$

  Mrv1812 02121911042D          

 12 12  0  0  0  0            999 V2000
    1.4289    0.8250    0.0000 O   0  0  0  0  0  0  0  0  0  0  0  0
    0.7145    0.4125    0.0000 C   0  0  0  0  0  0  0  0  0  0  0  0
    0.0000    0.8250    0.0000 C   0  0  0  0  0  0  0  0  0  0  0  0
   -0.7145    0.4125    0.0000 O   0  0  0  0  0  0  0  0  0  0  0  0
   -0.7145   -0.4125    0.0000 C   0  0  0  0  0  0  0  0  0  0  0  0
   -1.4289   -0.8250    0.0000 O   0  0  0  0  0  0  0  0  0  0  0  0
   -0.0000   -0.8250    0.0000 C   0  0  0  0  0  0  0  0  0  0  0  0
    0.7145   -0.4125    0.0000 O   0  0  0  0  0  0  0  0  0  0  0  0
    0.3703    1.5622    0.0000 H   0  0  0  0  0  0  0  0  0  0  0  0
   -0.3703    1.5622    0.0000 H   0  0  0  0  0  0  0  0  0  0  0  0
   -0.3703   -1.5622    0.0000 H   0  0  0  0  0  0  0  0  0  0  0  0
    0.3703   -1.5622    0.0000 H   0  0  0  0  0  0  0  0  0  0  0  0
  1  2  2  0  0  0  0
  3  2  1  0  0  0  0
  4  3  1  0  0  0  0
  5  4  1  0  0  0  0
  5  6  2  0  0  0  0
  7  5  1  0  0  0  0
  8  7  1  0  0  0  0
  2  8  1  0  0  0  0
  3  9  1  0  0  0  0
  3 10  1  0  0  0  0
  7 11  1  0  0  0  0
  7 12  1  0  0  0  0
M  END
>  <id_input>
1819

>  <InChIKey>
RKDVKSZUMVYZHH-UHFFFAOYSA-N

>  <substance_name>
1,4-dioxane-2,5-dione

>  <casrn>
502-97-6

>  <Molecular weight>
116.07215881347656

>  <guideline>
OECD Guideline 404 (Acute Dermal Irritation / Corrosion)

>  <species>
rabbit

>  <type_of_coverage>
semiocclusive

>  <max_duration(hrs)>
4.0

>  <vehicle>
water

>  <edema/ erythema score>
4.0

>  <max_score>
4.0

>  <reversibility>
1.0

>  <Outcome>
1

>  <StandardizerResult>
Remove Explicit Hydrogens (ID: RemoveExplicitH)
Clear Stereo (ID: ClearStereo)
Wedge Clean (ID: WedgeClean)
Mesomerize (ID: Mesomerize)
Tautomerize (ID: Tautomerize)
Add Explicit Hydrogens (ID: AddExplicitH)
Neutralize (ID: Neutralize)
Clean 2D (ID: Clean2D)


$$$$

  Mrv1812 02121911042D          

 14 14  0  0  0  0            999 V2000
    2.1829    0.2652    0.0000 Cl  0  0  0  0  0  0  0  0  0  0  0  0
    1.4684    0.6777    0.0000 C   0  0  0  0  0  0  0  0  0  0  0  0
    1.4684    1.5027    0.0000 O   0  0  0  0  0  0  0  0  0  0  0  0
    0.7540    0.2652    0.0000 C   0  0  0  0  0  0  0  0  0  0  0  0
    0.0395    0.6777    0.0000 C   0  0  0  0  0  0  0  0  0  0  0  0
   -0.6750    0.2652    0.0000 C   0  0  0  0  0  0  0  0  0  0  0  0
   -0.6750   -0.5598    0.0000 C   0  0  0  0  0  0  0  0  0  0  0  0
   -1.3895   -0.9723    0.0000 Cl  0  0  0  0  0  0  0  0  0  0  0  0
    0.0395   -0.9723    0.0000 C   0  0  0  0  0  0  0  0  0  0  0  0
    0.7540   -0.5598    0.0000 C   0  0  0  0  0  0  0  0  0  0  0  0
    0.0395    1.5027    0.0000 H   0  0  0  0  0  0  0  0  0  0  0  0
   -1.3895    0.6777    0.0000 H   0  0  0  0  0  0  0  0  0  0  0  0
    0.0395   -1.7973    0.0000 H   0  0  0  0  0  0  0  0  0  0  0  0
    1.4684   -0.9723    0.0000 H   0  0  0  0  0  0  0  0  0  0  0  0
  1  2  1  0  0  0  0
  2  3  2  0  0  0  0
  2  4  1  0  0  0  0
  5  4  4  0  0  0  0
  6  5  4  0  0  0  0
  7  6  4  0  0  0  0
  7  8  1  0  0  0  0
  9  7  4  0  0  0  0
 10  9  4  0  0  0  0
  4 10  4  0  0  0  0
  5 11  1  0  0  0  0
  6 12  1  0  0  0  0
  9 13  1  0  0  0  0
 10 14  1  0  0  0  0
M  END
>  <id_input>
2894, 2895

>  <InChIKey>
RKIDDEGICSMIJA-UHFFFAOYSA-N

>  <substance_name>
4-chlorobenzoyl chloride

>  <casrn>
122-01-0

>  <Molecular weight>
175.01205444335938

>  <guideline>
OECD Guideline 404 (Acute Dermal Irritation / Corrosion)

>  <species>
rabbit

>  <type_of_coverage>
semiocclusive

>  <max_duration(hrs)>
4.0

>  <vehicle>
unchanged (no vehicle)

>  <edema/ erythema score>
2.0

>  <max_score>
4.0

>  <reversibility>
0.0

>  <Outcome>
1

>  <StandardizerResult>
Remove Explicit Hydrogens (ID: RemoveExplicitH)
Dearomatize (ID: Dearomatize)
Clear Stereo (ID: ClearStereo)
Wedge Clean (ID: WedgeClean)
Mesomerize (ID: Mesomerize)
Tautomerize (ID: Tautomerize)
Aromatize (ID: Aromatize)
Add Explicit Hydrogens (ID: AddExplicitH)
Neutralize (ID: Neutralize)
Clean 2D (ID: Clean2D)


$$$$

  Mrv1812 02121911042D          

 35 34  0  0  0  0            999 V2000
    4.0751    1.7133    0.0000 C   0  0  0  0  0  0  0  0  0  0  0  0
    4.0751    0.8883    0.0000 C   0  0  0  0  0  0  0  0  0  0  0  0
    3.3606    0.4758    0.0000 C   0  0  0  0  0  0  0  0  0  0  0  0
    2.6461    0.8883    0.0000 O   0  0  0  0  0  0  0  0  0  0  0  0
    1.9317    0.4758    0.0000 C   0  0  0  0  0  0  0  0  0  0  0  0
    1.2172    0.8883    0.0000 C   0  0  0  0  0  0  0  0  0  0  0  0
    1.2172    1.7133    0.0000 C   0  0  0  0  0  0  0  0  0  0  0  0
    0.5027    0.4758    0.0000 O   0  0  0  0  0  0  0  0  0  0  0  0
   -0.2117    0.8883    0.0000 C   0  0  0  0  0  0  0  0  0  0  0  0
   -0.2117    1.7133    0.0000 O   0  0  0  0  0  0  0  0  0  0  0  0
   -0.9262    0.4758    0.0000 C   0  0  0  0  0  0  0  0  0  0  0  0
   -1.6407    0.8883    0.0000 C   0  0  0  0  0  0  0  0  0  0  0  0
    4.7895    0.4758    0.0000 O   0  0  0  0  0  0  0  0  0  0  0  0
    5.5040    0.8883    0.0000 C   0  0  0  0  0  0  0  0  0  0  0  0
    5.5040    1.7133    0.0000 O   0  0  0  0  0  0  0  0  0  0  0  0
    6.2185    0.4758    0.0000 C   0  0  0  0  0  0  0  0  0  0  0  0
    6.9330    0.8883    0.0000 C   0  0  0  0  0  0  0  0  0  0  0  0
    4.9001    1.7133    0.0000 H   0  0  0  0  0  0  0  0  0  0  0  0
    4.0751    2.5383    0.0000 H   0  0  0  0  0  0  0  0  0  0  0  0
    3.2501    1.7133    0.0000 H   0  0  0  0  0  0  0  0  0  0  0  0
    3.3606    1.3008    0.0000 H   0  0  0  0  0  0  0  0  0  0  0  0
    2.9903   -0.2614    0.0000 H   0  0  0  0  0  0  0  0  0  0  0  0
    3.7309   -0.2614    0.0000 H   0  0  0  0  0  0  0  0  0  0  0  0
    1.5614   -0.2614    0.0000 H   0  0  0  0  0  0  0  0  0  0  0  0
    2.3019   -0.2614    0.0000 H   0  0  0  0  0  0  0  0  0  0  0  0
    1.9317    1.3008    0.0000 H   0  0  0  0  0  0  0  0  0  0  0  0
    1.8006    2.2967    0.0000 H   0  0  0  0  0  0  0  0  0  0  0  0
    0.8047    2.4278    0.0000 H   0  0  0  0  0  0  0  0  0  0  0  0
    0.4203    1.4998    0.0000 H   0  0  0  0  0  0  0  0  0  0  0  0
   -0.9262   -0.3492    0.0000 H   0  0  0  0  0  0  0  0  0  0  0  0
   -1.6407    1.7133    0.0000 H   0  0  0  0  0  0  0  0  0  0  0  0
   -2.3552    0.4758    0.0000 H   0  0  0  0  0  0  0  0  0  0  0  0
    6.2185   -0.3492    0.0000 H   0  0  0  0  0  0  0  0  0  0  0  0
    7.6474    0.4758    0.0000 H   0  0  0  0  0  0  0  0  0  0  0  0
    6.9330    1.7133    0.0000 H   0  0  0  0  0  0  0  0  0  0  0  0
  1  2  1  0  0  0  0
  2  3  1  0  0  0  0
  3  4  1  0  0  0  0
  4  5  1  0  0  0  0
  5  6  1  0  0  0  0
  6  7  1  0  0  0  0
  6  8  1  0  0  0  0
  8  9  1  0  0  0  0
  9 10  2  0  0  0  0
  9 11  1  0  0  0  0
 11 12  2  0  0  0  0
  2 13  1  0  0  0  0
 13 14  1  0  0  0  0
 14 15  2  0  0  0  0
 14 16  1  0  0  0  0
 16 17  2  0  0  0  0
  1 18  1  0  0  0  0
  1 19  1  0  0  0  0
  1 20  1  0  0  0  0
  2 21  1  0  0  0  0
  3 22  1  0  0  0  0
  3 23  1  0  0  0  0
  5 24  1  0  0  0  0
  5 25  1  0  0  0  0
  6 26  1  0  0  0  0
  7 27  1  0  0  0  0
  7 28  1  0  0  0  0
  7 29  1  0  0  0  0
 11 30  1  0  0  0  0
 12 31  1  0  0  0  0
 12 32  1  0  0  0  0
 16 33  1  0  0  0  0
 17 34  1  0  0  0  0
 17 35  1  0  0  0  0
M  END
>  <id_input>
4752, 4753, 4754

>  <InChIKey>
RNJVAUBBYGWVBF-UHFFFAOYSA-N

>  <substance_name>
oxydipropane-1,2-diyl bisacrylate

>  <casrn>
57472-68-1

>  <Molecular weight>
242.26832580566406

>  <guideline>
OECD Guideline 404 (Acute Dermal Irritation / Corrosion)

>  <species>
rabbit

>  <type_of_coverage>
semiocclusive

>  <max_duration(hrs)>
4.0

>  <vehicle>
unchanged (no vehicle)

>  <edema/ erythema score>
2.33

>  <max_score>
4.0

>  <reversibility>
0.0

>  <Outcome>
1

>  <StandardizerResult>
Remove Explicit Hydrogens (ID: RemoveExplicitH)
Clear Stereo (ID: ClearStereo)
Wedge Clean (ID: WedgeClean)
Mesomerize (ID: Mesomerize)
Tautomerize (ID: Tautomerize)
Add Explicit Hydrogens (ID: AddExplicitH)
Neutralize (ID: Neutralize)
Clean 2D (ID: Clean2D)


$$$$

  Mrv1812 02121911042D          

 29 30  0  0  0  0            999 V2000
   -2.3115    0.9236    0.0000 N   0  0  0  0  0  0  0  0  0  0  0  0
   -1.5971    1.3361    0.0000 C   0  0  0  0  0  0  0  0  0  0  0  0
   -0.8826    0.9236    0.0000 C   0  0  0  0  0  0  0  0  0  0  0  0
   -0.1681    1.3361    0.0000 C   0  0  0  0  0  0  0  0  0  0  0  0
    0.5463    0.9236    0.0000 C   0  0  0  0  0  0  0  0  0  0  0  0
    0.5463    0.0986    0.0000 C   0  0  0  0  0  0  0  0  0  0  0  0
   -0.1681   -0.3139    0.0000 C   0  0  0  0  0  0  0  0  0  0  0  0
   -0.3744    0.5111    0.0000 C   0  0  0  0  0  0  0  0  0  0  0  0
   -0.8826    0.0986    0.0000 C   0  0  0  0  0  0  0  0  0  0  0  0
   -1.5971   -0.3139    0.0000 C   0  0  0  0  0  0  0  0  0  0  0  0
   -2.3115    0.0986    0.0000 N   0  0  0  0  0  0  0  0  0  0  0  0
   -2.7649    1.6129    0.0000 H   0  0  0  0  0  0  0  0  0  0  0  0
   -3.1351    0.9716    0.0000 H   0  0  0  0  0  0  0  0  0  0  0  0
   -1.2268    2.0734    0.0000 H   0  0  0  0  0  0  0  0  0  0  0  0
   -1.9673    2.0734    0.0000 H   0  0  0  0  0  0  0  0  0  0  0  0
   -0.8826    1.7486    0.0000 H   0  0  0  0  0  0  0  0  0  0  0  0
    0.2444    2.0506    0.0000 H   0  0  0  0  0  0  0  0  0  0  0  0
    1.3699    0.9716    0.0000 H   0  0  0  0  0  0  0  0  0  0  0  0
    0.9997    1.6129    0.0000 H   0  0  0  0  0  0  0  0  0  0  0  0
    0.9997   -0.5907    0.0000 H   0  0  0  0  0  0  0  0  0  0  0  0
    1.3699    0.0506    0.0000 H   0  0  0  0  0  0  0  0  0  0  0  0
   -0.1681   -1.1389    0.0000 H   0  0  0  0  0  0  0  0  0  0  0  0
    0.3714    0.1583    0.0000 H   0  0  0  0  0  0  0  0  0  0  0  0
    0.3714    0.8640    0.0000 H   0  0  0  0  0  0  0  0  0  0  0  0
   -0.8826   -0.7264    0.0000 H   0  0  0  0  0  0  0  0  0  0  0  0
   -2.2291   -0.8442    0.0000 H   0  0  0  0  0  0  0  0  0  0  0  0
   -1.7403   -1.1264    0.0000 H   0  0  0  0  0  0  0  0  0  0  0  0
   -3.0959    0.3543    0.0000 H   0  0  0  0  0  0  0  0  0  0  0  0
   -3.0706   -0.2245    0.0000 H   0  0  0  0  0  0  0  0  0  0  0  0
  1  2  1  0  0  0  0
  2  3  1  0  0  0  0
  4  3  1  0  0  0  0
  4  5  1  0  0  0  0
  5  6  1  0  0  0  0
  6  7  1  0  0  0  0
  7  8  1  0  0  0  0
  9  7  1  0  0  0  0
  9 10  1  0  0  0  0
 10 11  1  0  0  0  0
  3  9  1  0  0  0  0
  8  4  1  0  0  0  0
  1 12  1  0  0  0  0
  1 13  1  0  0  0  0
  2 14  1  0  0  0  0
  2 15  1  0  0  0  0
  3 16  1  0  0  0  0
  4 17  1  0  0  0  0
  5 18  1  0  0  0  0
  5 19  1  0  0  0  0
  6 20  1  0  0  0  0
  6 21  1  0  0  0  0
  7 22  1  0  0  0  0
  8 23  1  0  0  0  0
  8 24  1  0  0  0  0
  9 25  1  0  0  0  0
 10 26  1  0  0  0  0
 10 27  1  0  0  0  0
 11 28  1  0  0  0  0
 11 29  1  0  0  0  0
M  END
>  <id_input>
3913

>  <InChIKey>
RPYFJVIASOJLJS-UHFFFAOYSA-N

>  <substance_name>
bicyclo[2.2.1]heptanebis(methylamine)

>  <casrn>
56602-77-8

>  <Molecular weight>
154.25262451171875

>  <guideline>
OECD Guideline 404 (Acute Dermal Irritation / Corrosion)

>  <species>
rabbit

>  <type_of_coverage>
semiocclusive

>  <max_duration(hrs)>
4.0

>  <vehicle>
unchanged (no vehicle)

>  <edema/ erythema score>
2.66

>  <max_score>
3.0

>  <reversibility>
1.0

>  <Outcome>
1

>  <StandardizerResult>
Remove Explicit Hydrogens (ID: RemoveExplicitH)
Clear Stereo (ID: ClearStereo)
Wedge Clean (ID: WedgeClean)
Mesomerize (ID: Mesomerize)
Tautomerize (ID: Tautomerize)
Add Explicit Hydrogens (ID: AddExplicitH)
Neutralize (ID: Neutralize)
Clean 2D (ID: Clean2D)


$$$$

  Mrv1812 02121911042D          

 17 17  0  0  0  0            999 V2000
    1.4419    0.7765    0.0000 C   0  0  0  0  0  0  0  0  0  0  0  0
    0.7275    0.3640    0.0000 C   0  0  0  0  0  0  0  0  0  0  0  0
    0.0130    0.7765    0.0000 C   0  0  0  0  0  0  0  0  0  0  0  0
   -0.7015    0.3640    0.0000 C   0  0  0  0  0  0  0  0  0  0  0  0
   -0.7015   -0.4610    0.0000 C   0  0  0  0  0  0  0  0  0  0  0  0
   -1.4159   -0.8735    0.0000 N   0  0  0  0  0  0  0  0  0  0  0  0
    0.0130   -0.8735    0.0000 C   0  0  0  0  0  0  0  0  0  0  0  0
    0.7275   -0.4610    0.0000 C   0  0  0  0  0  0  0  0  0  0  0  0
    1.4419   -0.8735    0.0000 Cl  0  0  0  0  0  0  0  0  0  0  0  0
    1.8544    0.0620    0.0000 H   0  0  0  0  0  0  0  0  0  0  0  0
    2.1564    1.1890    0.0000 H   0  0  0  0  0  0  0  0  0  0  0  0
    1.0294    1.4910    0.0000 H   0  0  0  0  0  0  0  0  0  0  0  0
    0.0130    1.6015    0.0000 H   0  0  0  0  0  0  0  0  0  0  0  0
   -1.4159    0.7765    0.0000 H   0  0  0  0  0  0  0  0  0  0  0  0
   -2.1304   -0.4610    0.0000 H   0  0  0  0  0  0  0  0  0  0  0  0
   -1.4159   -1.6985    0.0000 H   0  0  0  0  0  0  0  0  0  0  0  0
    0.0130   -1.6985    0.0000 H   0  0  0  0  0  0  0  0  0  0  0  0
  1  2  1  0  0  0  0
  3  2  4  0  0  0  0
  4  3  4  0  0  0  0
  5  4  4  0  0  0  0
  5  6  1  0  0  0  0
  7  5  4  0  0  0  0
  8  7  4  0  0  0  0
  8  9  1  0  0  0  0
  2  8  4  0  0  0  0
  1 10  1  0  0  0  0
  1 11  1  0  0  0  0
  1 12  1  0  0  0  0
  3 13  1  0  0  0  0
  4 14  1  0  0  0  0
  6 15  1  0  0  0  0
  6 16  1  0  0  0  0
  7 17  1  0  0  0  0
M  END
>  <id_input>
2732

>  <InChIKey>
RQKFYFNZSHWXAW-UHFFFAOYSA-N

>  <substance_name>
3-chloro-4-methylaniline

>  <casrn>
95-74-9

>  <Molecular weight>
141.59811401367188

>  <guideline>
OECD Guideline 404 (Acute Dermal Irritation / Corrosion)

>  <species>
rabbit

>  <type_of_coverage>
other: patch 2.5*2.5 cm pulp

>  <max_duration(hrs)>
4.0

>  <vehicle>
other: polyethylene glycol

>  <edema/ erythema score>
2.0

>  <max_score>
2.0

>  <reversibility>
0.0

>  <Outcome>
1

>  <StandardizerResult>
Remove Explicit Hydrogens (ID: RemoveExplicitH)
Dearomatize (ID: Dearomatize)
Clear Stereo (ID: ClearStereo)
Wedge Clean (ID: WedgeClean)
Mesomerize (ID: Mesomerize)
Tautomerize (ID: Tautomerize)
Aromatize (ID: Aromatize)
Add Explicit Hydrogens (ID: AddExplicitH)
Neutralize (ID: Neutralize)
Clean 2D (ID: Clean2D)


$$$$

  Mrv1812 02121911042D          

 28 28  0  0  0  0            999 V2000
   -0.6240   -0.8718    0.0000 C   0  0  0  0  0  0  0  0  0  0  0  0
    0.2010   -0.8718    0.0000 C   0  0  0  0  0  0  0  0  0  0  0  0
    0.6135   -0.1574    0.0000 O   0  0  0  0  0  0  0  0  0  0  0  0
    1.4385   -0.1574    0.0000 P   0  0  0  0  0  0  0  0  0  0  0  0
    1.8510   -0.8718    0.0000 O   0  0  0  0  0  0  0  0  0  0  0  0
    2.6760   -0.8718    0.0000 C   0  0  0  0  0  0  0  0  0  0  0  0
    3.0885   -1.5863    0.0000 C   0  0  0  0  0  0  0  0  0  0  0  0
    1.8510    0.5571    0.0000 C   0  0  0  0  0  0  0  0  0  0  0  0
    2.6760    0.5571    0.0000 C   0  0  0  0  0  0  0  0  0  0  0  0
    3.0885    1.2716    0.0000 C   0  0  0  0  0  0  0  0  0  0  0  0
    2.6760    1.9860    0.0000 C   0  0  0  0  0  0  0  0  0  0  0  0
    1.8510    1.9860    0.0000 C   0  0  0  0  0  0  0  0  0  0  0  0
    1.4385    1.2716    0.0000 C   0  0  0  0  0  0  0  0  0  0  0  0
   -0.6240   -0.0468    0.0000 H   0  0  0  0  0  0  0  0  0  0  0  0
   -1.4490   -0.8718    0.0000 H   0  0  0  0  0  0  0  0  0  0  0  0
   -0.6240   -1.6968    0.0000 H   0  0  0  0  0  0  0  0  0  0  0  0
    0.2489   -1.6954    0.0000 H   0  0  0  0  0  0  0  0  0  0  0  0
    0.8902   -1.3252    0.0000 H   0  0  0  0  0  0  0  0  0  0  0  0
    3.3652   -0.4185    0.0000 H   0  0  0  0  0  0  0  0  0  0  0  0
    2.7239   -0.0482    0.0000 H   0  0  0  0  0  0  0  0  0  0  0  0
    2.3740   -1.9988    0.0000 H   0  0  0  0  0  0  0  0  0  0  0  0
    3.5010   -2.3008    0.0000 H   0  0  0  0  0  0  0  0  0  0  0  0
    3.8029   -1.1738    0.0000 H   0  0  0  0  0  0  0  0  0  0  0  0
    3.4807    0.3752    0.0000 H   0  0  0  0  0  0  0  0  0  0  0  0
    3.9135    1.2716    0.0000 H   0  0  0  0  0  0  0  0  0  0  0  0
    3.0885    2.7005    0.0000 H   0  0  0  0  0  0  0  0  0  0  0  0
    1.4385    2.7005    0.0000 H   0  0  0  0  0  0  0  0  0  0  0  0
    0.6135    1.2716    0.0000 H   0  0  0  0  0  0  0  0  0  0  0  0
  1  2  1  0  0  0  0
  2  3  1  0  0  0  0
  3  4  1  0  0  0  0
  4  5  1  0  0  0  0
  5  6  1  0  0  0  0
  6  7  1  0  0  0  0
  4  8  1  0  0  0  0
  9  8  4  0  0  0  0
 10  9  4  0  0  0  0
 11 10  4  0  0  0  0
 12 11  4  0  0  0  0
 13 12  4  0  0  0  0
  8 13  4  0  0  0  0
  1 14  1  0  0  0  0
  1 15  1  0  0  0  0
  1 16  1  0  0  0  0
  2 17  1  0  0  0  0
  2 18  1  0  0  0  0
  6 19  1  0  0  0  0
  6 20  1  0  0  0  0
  7 21  1  0  0  0  0
  7 22  1  0  0  0  0
  7 23  1  0  0  0  0
  9 24  1  0  0  0  0
 10 25  1  0  0  0  0
 11 26  1  0  0  0  0
 12 27  1  0  0  0  0
 13 28  1  0  0  0  0
M  END
>  <id_input>
4150

>  <InChIKey>
RVDJLKVICMLVJQ-UHFFFAOYSA-N

>  <substance_name>
diethyl phenylphosphonite

>  <casrn>
1638-86-4

>  <Molecular weight>
198.19866943359375

>  <guideline>
OECD Guideline 404 (Acute Dermal Irritation / Corrosion)

>  <species>
rabbit

>  <type_of_coverage>
semiocclusive

>  <max_duration(hrs)>
4.0

>  <vehicle>
unchanged (no vehicle)

>  <edema/ erythema score>
2.52

>  <max_score>
4.0

>  <reversibility>
1.0

>  <Outcome>
1

>  <StandardizerResult>
Remove Explicit Hydrogens (ID: RemoveExplicitH)
Dearomatize (ID: Dearomatize)
Clear Stereo (ID: ClearStereo)
Wedge Clean (ID: WedgeClean)
Mesomerize (ID: Mesomerize)
Tautomerize (ID: Tautomerize)
Aromatize (ID: Aromatize)
Add Explicit Hydrogens (ID: AddExplicitH)
Neutralize (ID: Neutralize)
Clean 2D (ID: Clean2D)


$$$$

  Mrv1812 02121911042D          

 39 38  0  0  0  0            999 V2000
   -0.2289    1.4363    0.0000 C   0  0  0  0  0  0  0  0  0  0  0  0
    0.4856    1.0238    0.0000 C   0  0  0  0  0  0  0  0  0  0  0  0
    1.2001    1.4363    0.0000 C   0  0  0  0  0  0  0  0  0  0  0  0
    1.9146    1.0238    0.0000 C   0  0  0  0  0  0  0  0  0  0  0  0
    2.6290    1.4363    0.0000 C   0  0  0  0  0  0  0  0  0  0  0  0
    3.3435    1.0238    0.0000 C   0  0  0  0  0  0  0  0  0  0  0  0
    3.3435    0.1988    0.0000 C   0  0  0  0  0  0  0  0  0  0  0  0
    4.0580   -0.2137    0.0000 C   0  0  0  0  0  0  0  0  0  0  0  0
    4.0580   -1.0387    0.0000 C   0  0  0  0  0  0  0  0  0  0  0  0
    4.0580    1.4363    0.0000 C   0  0  0  0  0  0  0  0  0  0  0  0
    4.7724    1.0238    0.0000 O   0  0  0  0  0  0  0  0  0  0  0  0
    5.4869    1.4363    0.0000 C   0  0  0  0  0  0  0  0  0  0  0  0
    5.4869    2.2613    0.0000 O   0  0  0  0  0  0  0  0  0  0  0  0
    6.2014    1.0238    0.0000 C   0  0  0  0  0  0  0  0  0  0  0  0
    6.9158    1.4363    0.0000 C   0  0  0  0  0  0  0  0  0  0  0  0
    0.1836    2.1507    0.0000 H   0  0  0  0  0  0  0  0  0  0  0  0
   -0.9433    1.8488    0.0000 H   0  0  0  0  0  0  0  0  0  0  0  0
   -0.6414    0.7218    0.0000 H   0  0  0  0  0  0  0  0  0  0  0  0
    0.1154    0.2865    0.0000 H   0  0  0  0  0  0  0  0  0  0  0  0
    0.8559    0.2865    0.0000 H   0  0  0  0  0  0  0  0  0  0  0  0
    1.5703    2.1735    0.0000 H   0  0  0  0  0  0  0  0  0  0  0  0
    0.8298    2.1735    0.0000 H   0  0  0  0  0  0  0  0  0  0  0  0
    1.5443    0.2865    0.0000 H   0  0  0  0  0  0  0  0  0  0  0  0
    2.2848    0.2865    0.0000 H   0  0  0  0  0  0  0  0  0  0  0  0
    2.9993    2.1735    0.0000 H   0  0  0  0  0  0  0  0  0  0  0  0
    2.2588    2.1735    0.0000 H   0  0  0  0  0  0  0  0  0  0  0  0
    2.6290    0.6113    0.0000 H   0  0  0  0  0  0  0  0  0  0  0  0
    2.7115   -0.3315    0.0000 H   0  0  0  0  0  0  0  0  0  0  0  0
    3.2002   -0.6137    0.0000 H   0  0  0  0  0  0  0  0  0  0  0  0
    4.8816   -0.1658    0.0000 H   0  0  0  0  0  0  0  0  0  0  0  0
    4.5113    0.4755    0.0000 H   0  0  0  0  0  0  0  0  0  0  0  0
    3.5031   -1.6492    0.0000 H   0  0  0  0  0  0  0  0  0  0  0  0
    4.4929   -1.7398    0.0000 H   0  0  0  0  0  0  0  0  0  0  0  0
    4.8514   -0.8126    0.0000 H   0  0  0  0  0  0  0  0  0  0  0  0
    4.4282    2.1735    0.0000 H   0  0  0  0  0  0  0  0  0  0  0  0
    3.6877    2.1735    0.0000 H   0  0  0  0  0  0  0  0  0  0  0  0
    6.2014    0.1988    0.0000 H   0  0  0  0  0  0  0  0  0  0  0  0
    7.6303    1.0238    0.0000 H   0  0  0  0  0  0  0  0  0  0  0  0
    6.9158    2.2613    0.0000 H   0  0  0  0  0  0  0  0  0  0  0  0
  1  2  1  0  0  0  0
  2  3  1  0  0  0  0
  3  4  1  0  0  0  0
  4  5  1  0  0  0  0
  5  6  1  0  0  0  0
  6  7  1  0  0  0  0
  7  8  1  0  0  0  0
  8  9  1  0  0  0  0
  6 10  1  0  0  0  0
 10 11  1  0  0  0  0
 11 12  1  0  0  0  0
 12 13  2  0  0  0  0
 12 14  1  0  0  0  0
 14 15  2  0  0  0  0
  1 16  1  0  0  0  0
  1 17  1  0  0  0  0
  1 18  1  0  0  0  0
  2 19  1  0  0  0  0
  2 20  1  0  0  0  0
  3 21  1  0  0  0  0
  3 22  1  0  0  0  0
  4 23  1  0  0  0  0
  4 24  1  0  0  0  0
  5 25  1  0  0  0  0
  5 26  1  0  0  0  0
  6 27  1  0  0  0  0
  7 28  1  0  0  0  0
  7 29  1  0  0  0  0
  8 30  1  0  0  0  0
  8 31  1  0  0  0  0
  9 32  1  0  0  0  0
  9 33  1  0  0  0  0
  9 34  1  0  0  0  0
 10 35  1  0  0  0  0
 10 36  1  0  0  0  0
 14 37  1  0  0  0  0
 15 38  1  0  0  0  0
 15 39  1  0  0  0  0
M  END
>  <id_input>
1303

>  <InChIKey>
RXBOCDZLKBPILN-UHFFFAOYSA-N

>  <substance_name>
-

>  <casrn>
149021-58-9

>  <Molecular weight>
212.32846069335938

>  <guideline>
OECD Guideline 404 (Acute Dermal Irritation / Corrosion)

>  <species>
rabbit

>  <type_of_coverage>
semiocclusive

>  <max_duration(hrs)>
4.0

>  <vehicle>
unchanged (no vehicle)

>  <edema/ erythema score>
2.875

>  <max_score>
4.0

>  <reversibility>
1.0

>  <Outcome>
1

>  <StandardizerResult>
Remove Explicit Hydrogens (ID: RemoveExplicitH)
Clear Stereo (ID: ClearStereo)
Wedge Clean (ID: WedgeClean)
Mesomerize (ID: Mesomerize)
Tautomerize (ID: Tautomerize)
Add Explicit Hydrogens (ID: AddExplicitH)
Neutralize (ID: Neutralize)
Clean 2D (ID: Clean2D)


$$$$

  Mrv1812 02121911042D          

 33 32  0  0  0  0            999 V2000
   -1.4116    2.5968    0.0000 C   0  0  0  0  0  0  0  0  0  0  0  0
   -0.6971    2.1843    0.0000 C   0  0  0  0  0  0  0  0  0  0  0  0
   -0.6971    1.3593    0.0000 C   0  0  0  0  0  0  0  0  0  0  0  0
    0.0174    2.5968    0.0000 C   0  0  0  0  0  0  0  0  0  0  0  0
    0.7319    2.1843    0.0000 C   0  0  0  0  0  0  0  0  0  0  0  0
    1.4463    2.5968    0.0000 C   0  0  0  0  0  0  0  0  0  0  0  0
    2.1608    2.1843    0.0000 C   0  0  0  0  0  0  0  0  0  0  0  0
    2.8753    2.5968    0.0000 C   0  0  0  0  0  0  0  0  0  0  0  0
    3.5897    2.1843    0.0000 O   0  0  0  0  0  0  0  0  0  0  0  0
    4.3042    2.5968    0.0000 C   0  0  0  0  0  0  0  0  0  0  0  0
    4.3042    3.4218    0.0000 O   0  0  0  0  0  0  0  0  0  0  0  0
    5.0187    2.1843    0.0000 C   0  0  0  0  0  0  0  0  0  0  0  0
    5.7332    2.5968    0.0000 S   0  0  0  0  0  0  0  0  0  0  0  0
   -0.9991    3.3113    0.0000 H   0  0  0  0  0  0  0  0  0  0  0  0
   -2.1260    3.0093    0.0000 H   0  0  0  0  0  0  0  0  0  0  0  0
   -1.8241    1.8824    0.0000 H   0  0  0  0  0  0  0  0  0  0  0  0
   -1.4116    1.7718    0.0000 H   0  0  0  0  0  0  0  0  0  0  0  0
   -1.2805    0.7760    0.0000 H   0  0  0  0  0  0  0  0  0  0  0  0
   -0.2846    0.6449    0.0000 H   0  0  0  0  0  0  0  0  0  0  0  0
    0.0998    1.5729    0.0000 H   0  0  0  0  0  0  0  0  0  0  0  0
    0.3876    3.3341    0.0000 H   0  0  0  0  0  0  0  0  0  0  0  0
   -0.3529    3.3341    0.0000 H   0  0  0  0  0  0  0  0  0  0  0  0
    1.2286    1.5257    0.0000 H   0  0  0  0  0  0  0  0  0  0  0  0
    0.7319    3.0093    0.0000 H   0  0  0  0  0  0  0  0  0  0  0  0
    2.0783    3.1271    0.0000 H   0  0  0  0  0  0  0  0  0  0  0  0
    1.5896    3.4093    0.0000 H   0  0  0  0  0  0  0  0  0  0  0  0
    1.7905    1.4471    0.0000 H   0  0  0  0  0  0  0  0  0  0  0  0
    2.5311    1.4471    0.0000 H   0  0  0  0  0  0  0  0  0  0  0  0
    3.5983    2.9941    0.0000 H   0  0  0  0  0  0  0  0  0  0  0  0
    2.9102    3.4211    0.0000 H   0  0  0  0  0  0  0  0  0  0  0  0
    4.6484    1.4471    0.0000 H   0  0  0  0  0  0  0  0  0  0  0  0
    5.3889    1.4471    0.0000 H   0  0  0  0  0  0  0  0  0  0  0  0
    6.4476    2.1843    0.0000 H   0  0  0  0  0  0  0  0  0  0  0  0
  1  2  1  0  0  0  0
  2  3  1  0  0  0  0
  2  4  1  0  0  0  0
  4  5  1  0  0  0  0
  5  6  1  0  0  0  0
  6  7  1  0  0  0  0
  7  8  1  0  0  0  0
  8  9  1  0  0  0  0
  9 10  1  0  0  0  0
 10 11  2  0  0  0  0
 10 12  1  0  0  0  0
 12 13  1  0  0  0  0
  1 14  1  0  0  0  0
  1 15  1  0  0  0  0
  1 16  1  0  0  0  0
  2 17  1  0  0  0  0
  3 18  1  0  0  0  0
  3 19  1  0  0  0  0
  3 20  1  0  0  0  0
  4 21  1  0  0  0  0
  4 22  1  0  0  0  0
  5 23  1  0  0  0  0
  5 24  1  0  0  0  0
  6 25  1  0  0  0  0
  6 26  1  0  0  0  0
  7 27  1  0  0  0  0
  7 28  1  0  0  0  0
  8 29  1  0  0  0  0
  8 30  1  0  0  0  0
 12 31  1  0  0  0  0
 12 32  1  0  0  0  0
 13 33  1  0  0  0  0
M  END
>  <id_input>
2546

>  <InChIKey>
RZBBHEJLECUBJT-UHFFFAOYSA-N

>  <substance_name>
2-methylheptyl 2-sulfanylacetate

>  <casrn>
25103-09-7

>  <Molecular weight>
204.32960510253906

>  <guideline>
OECD Guideline 404 (Acute Dermal Irritation / Corrosion)

>  <species>
rabbit

>  <type_of_coverage>
semiocclusive

>  <max_duration(hrs)>
4.0

>  <vehicle>
unchanged (no vehicle)

>  <edema/ erythema score>
1.46666666666666

>  <max_score>
4.0

>  <reversibility>
0.0

>  <Outcome>
1

>  <StandardizerResult>
Remove Explicit Hydrogens (ID: RemoveExplicitH)
Clear Stereo (ID: ClearStereo)
Wedge Clean (ID: WedgeClean)
Mesomerize (ID: Mesomerize)
Tautomerize (ID: Tautomerize)
Add Explicit Hydrogens (ID: AddExplicitH)
Neutralize (ID: Neutralize)
Clean 2D (ID: Clean2D)


$$$$

  Mrv1812 02121911042D          

 21 20  0  0  0  0            999 V2000
    1.8799   -1.8395    0.0000 C   0  0  0  0  0  0  0  0  0  0  0  0
    1.8799   -1.0145    0.0000 Si  0  0  0  0  0  4  0  0  0  0  0  0
    2.7049   -1.0145    0.0000 C   0  0  0  0  0  0  0  0  0  0  0  0
    1.8799   -0.1895    0.0000 C   0  0  0  0  0  0  0  0  0  0  0  0
    1.1654    0.2230    0.0000 C   0  0  0  0  0  0  0  0  0  0  0  0
    1.1654    1.0480    0.0000 C   0  0  0  0  0  0  0  0  0  0  0  0
    0.4509    1.4605    0.0000 C   0  0  0  0  0  0  0  0  0  0  0  0
   -0.2635    1.8730    0.0000 N   0  0  0  0  0  0  0  0  0  0  0  0
    1.0549   -1.0145    0.0000 F   0  0  0  0  0  0  0  0  0  0  0  0
    1.0549   -1.8395    0.0000 H   0  0  0  0  0  0  0  0  0  0  0  0
    1.8799   -2.6645    0.0000 H   0  0  0  0  0  0  0  0  0  0  0  0
    2.7049   -1.8395    0.0000 H   0  0  0  0  0  0  0  0  0  0  0  0
    3.4671   -1.3302    0.0000 H   0  0  0  0  0  0  0  0  0  0  0  0
    3.2882   -0.4311    0.0000 H   0  0  0  0  0  0  0  0  0  0  0  0
    2.3892   -0.2523    0.0000 H   0  0  0  0  0  0  0  0  0  0  0  0
    2.1418    0.5928    0.0000 H   0  0  0  0  0  0  0  0  0  0  0  0
    1.1654   -0.6020    0.0000 H   0  0  0  0  0  0  0  0  0  0  0  0
    0.3902    0.5052    0.0000 H   0  0  0  0  0  0  0  0  0  0  0  0
    0.3902   -0.0592    0.0000 H   0  0  0  0  0  0  0  0  0  0  0  0
    1.9890    1.0960    0.0000 H   0  0  0  0  0  0  0  0  0  0  0  0
    1.6187    1.7373    0.0000 H   0  0  0  0  0  0  0  0  0  0  0  0
  1  2  1  0  0  0  0
  2  3  1  0  0  0  0
  2  4  1  0  0  0  0
  4  5  1  0  0  0  0
  5  6  1  0  0  0  0
  6  7  1  0  0  0  0
  7  8  3  0  0  0  0
  2  9  1  0  0  0  0
  1 10  1  0  0  0  0
  1 11  1  0  0  0  0
  1 12  1  0  0  0  0
  3 13  1  0  0  0  0
  3 14  1  0  0  0  0
  3 15  1  0  0  0  0
  4 16  1  0  0  0  0
  4 17  1  0  0  0  0
  5 18  1  0  0  0  0
  5 19  1  0  0  0  0
  6 20  1  0  0  0  0
  6 21  1  0  0  0  0
M  END
>  <id_input>
5328

>  <InChIKey>
RZHGQUVEZKATLV-UHFFFAOYSA-N

>  <substance_name>
unnamed [1639345-42-8]

>  <casrn>
1639345-42-8

>  <Molecular weight>
145.25009155273438

>  <guideline>
OECD Guideline 404 (Acute Dermal Irritation / Corrosion)

>  <species>
rabbit

>  <type_of_coverage>
semiocclusive

>  <max_duration(hrs)>
4.0

>  <vehicle>
unchanged (no vehicle)

>  <edema/ erythema score>
2.0

>  <max_score>
4.0

>  <reversibility>
0.0

>  <Outcome>
1

>  <StandardizerResult>
Remove Explicit Hydrogens (ID: RemoveExplicitH)
Clear Stereo (ID: ClearStereo)
Wedge Clean (ID: WedgeClean)
Mesomerize (ID: Mesomerize)
Tautomerize (ID: Tautomerize)
Add Explicit Hydrogens (ID: AddExplicitH)
Neutralize (ID: Neutralize)
Clean 2D (ID: Clean2D)


$$$$

  Mrv1812 02121911042D          

 22 23  0  0  0  0            999 V2000
   -1.9486   -1.7605    0.0000 O   0  0  0  0  0  0  0  0  0  0  0  0
   -1.2341   -1.3480    0.0000 C   0  0  0  0  0  0  0  0  0  0  0  0
   -0.5196   -0.9355    0.0000 N   0  0  0  0  0  0  0  0  0  0  0  0
   -0.5196   -0.1105    0.0000 C   0  0  0  0  0  0  0  0  0  0  0  0
   -1.2341    0.3020    0.0000 C   0  0  0  0  0  0  0  0  0  0  0  0
   -1.2341    1.1270    0.0000 C   0  0  0  0  0  0  0  0  0  0  0  0
   -0.5196    1.5395    0.0000 C   0  0  0  0  0  0  0  0  0  0  0  0
    0.1949    1.1270    0.0000 C   0  0  0  0  0  0  0  0  0  0  0  0
    0.9093    1.5395    0.0000 C   0  0  0  0  0  0  0  0  0  0  0  0
    1.6238    1.1270    0.0000 C   0  0  0  0  0  0  0  0  0  0  0  0
    1.6238    0.3020    0.0000 C   0  0  0  0  0  0  0  0  0  0  0  0
    0.9093   -0.1105    0.0000 C   0  0  0  0  0  0  0  0  0  0  0  0
    0.1949    0.3020    0.0000 C   0  0  0  0  0  0  0  0  0  0  0  0
    0.9093    2.3645    0.0000 N   0  0  0  0  0  0  0  0  0  0  0  0
    0.1949    2.7770    0.0000 C   0  0  0  0  0  0  0  0  0  0  0  0
   -0.5196    3.1895    0.0000 O   0  0  0  0  0  0  0  0  0  0  0  0
   -1.9486   -0.1105    0.0000 H   0  0  0  0  0  0  0  0  0  0  0  0
   -1.9486    1.5395    0.0000 H   0  0  0  0  0  0  0  0  0  0  0  0
   -0.5196    2.3645    0.0000 H   0  0  0  0  0  0  0  0  0  0  0  0
    2.3383    1.5395    0.0000 H   0  0  0  0  0  0  0  0  0  0  0  0
    2.3383   -0.1105    0.0000 H   0  0  0  0  0  0  0  0  0  0  0  0
    0.9093   -0.9355    0.0000 H   0  0  0  0  0  0  0  0  0  0  0  0
  1  2  2  0  0  0  0
  2  3  2  0  0  0  0
  3  4  1  4  0  0  0
  5  4  4  0  0  0  0
  6  5  4  0  0  0  0
  7  6  4  0  0  0  0
  8  7  4  0  0  0  0
  8  9  4  0  0  0  0
  9 10  4  0  0  0  0
 10 11  4  0  0  0  0
 11 12  4  0  0  0  0
 12 13  4  0  0  0  0
 14  9  1  4  0  0  0
 14 15  2  0  0  0  0
 15 16  2  0  0  0  0
  4 13  4  0  0  0  0
 13  8  4  0  0  0  0
  5 17  1  0  0  0  0
  6 18  1  0  0  0  0
  7 19  1  0  0  0  0
 10 20  1  0  0  0  0
 11 21  1  0  0  0  0
 12 22  1  0  0  0  0
M  END
>  <id_input>
1825

>  <InChIKey>
SBJCUZQNHOLYMD-UHFFFAOYSA-N

>  <substance_name>
1,5-diisocyanatonaphthalene

>  <casrn>
3173-72-6

>  <Molecular weight>
210.18824768066406

>  <guideline>
OECD Guideline 404 (Acute Dermal Irritation / Corrosion)

>  <species>
rabbit

>  <type_of_coverage>
semiocclusive

>  <max_duration(hrs)>
4.0

>  <vehicle>
other: moistened with corn oil

>  <edema/ erythema score>
2.33333333333333

>  <max_score>
4.0

>  <reversibility>
0.0

>  <Outcome>
1

>  <StandardizerResult>
Remove Explicit Hydrogens (ID: RemoveExplicitH)
Dearomatize (ID: Dearomatize)
Clear Stereo (ID: ClearStereo)
Wedge Clean (ID: WedgeClean)
Mesomerize (ID: Mesomerize)
Tautomerize (ID: Tautomerize)
Aromatize (ID: Aromatize)
Add Explicit Hydrogens (ID: AddExplicitH)
Neutralize (ID: Neutralize)
Clean 2D (ID: Clean2D)


$$$$

  Mrv1812 02121911042D          

 21 21  0  0  0  0            999 V2000
    2.0917    0.8141    0.0000 Cl  0  0  0  0  0  0  0  0  0  0  0  0
    1.2792    0.6708    0.0000 P   0  0  0  0  0  0  0  0  0  0  0  0
    1.5614   -0.1044    0.0000 O   0  0  0  0  0  0  0  0  0  0  0  0
    1.2792    1.4958    0.0000 O   0  0  0  0  0  0  0  0  0  0  0  0
    0.5648    1.9083    0.0000 C   0  0  0  0  0  0  0  0  0  0  0  0
   -0.1497    1.4958    0.0000 C   0  0  0  0  0  0  0  0  0  0  0  0
   -0.1497    0.6708    0.0000 C   0  0  0  0  0  0  0  0  0  0  0  0
    0.5648    0.2583    0.0000 N   0  0  0  0  0  0  0  0  0  0  0  0
    0.5648   -0.5667    0.0000 C   0  0  0  0  0  0  0  0  0  0  0  0
   -0.1497   -0.9792    0.0000 C   0  0  0  0  0  0  0  0  0  0  0  0
   -0.1497   -1.8042    0.0000 Cl  0  0  0  0  0  0  0  0  0  0  0  0
    0.9350    2.6455    0.0000 H   0  0  0  0  0  0  0  0  0  0  0  0
    0.1945    2.6455    0.0000 H   0  0  0  0  0  0  0  0  0  0  0  0
   -0.6031    2.1851    0.0000 H   0  0  0  0  0  0  0  0  0  0  0  0
   -0.9733    1.5438    0.0000 H   0  0  0  0  0  0  0  0  0  0  0  0
   -0.9733    0.6228    0.0000 H   0  0  0  0  0  0  0  0  0  0  0  0
   -0.6031   -0.0185    0.0000 H   0  0  0  0  0  0  0  0  0  0  0  0
    1.0181   -1.2560    0.0000 H   0  0  0  0  0  0  0  0  0  0  0  0
    1.3884   -0.6147    0.0000 H   0  0  0  0  0  0  0  0  0  0  0  0
   -0.6031   -0.2899    0.0000 H   0  0  0  0  0  0  0  0  0  0  0  0
   -0.9733   -0.9312    0.0000 H   0  0  0  0  0  0  0  0  0  0  0  0
  1  2  1  0  0  0  0
  2  3  2  0  0  0  0
  4  2  1  0  0  0  0
  5  4  1  0  0  0  0
  6  5  1  0  0  0  0
  7  6  1  0  0  0  0
  8  7  1  0  0  0  0
  8  9  1  0  0  0  0
  9 10  1  0  0  0  0
 10 11  1  0  0  0  0
  2  8  1  0  0  0  0
  5 12  1  0  0  0  0
  5 13  1  0  0  0  0
  6 14  1  0  0  0  0
  6 15  1  0  0  0  0
  7 16  1  0  0  0  0
  7 17  1  0  0  0  0
  9 18  1  0  0  0  0
  9 19  1  0  0  0  0
 10 20  1  0  0  0  0
 10 21  1  0  0  0  0
M  END
>  <id_input>
1278

>  <InChIKey>
SBMJSKYKTAAHAB-UHFFFAOYSA-N

>  <substance_name>
-

>  <casrn>
40722-73-4

>  <Molecular weight>
218.01815795898438

>  <guideline>
OECD Guideline 404 (Acute Dermal Irritation / Corrosion)

>  <species>
rabbit

>  <type_of_coverage>
occlusive

>  <max_duration(hrs)>
4.0

>  <vehicle>
unchanged (no vehicle)

>  <edema/ erythema score>
2.0

>  <reversibility>
0.0

>  <Outcome>
1

>  <StandardizerResult>
Remove Explicit Hydrogens (ID: RemoveExplicitH)
Clear Stereo (ID: ClearStereo)
Wedge Clean (ID: WedgeClean)
Mesomerize (ID: Mesomerize)
Tautomerize (ID: Tautomerize)
Add Explicit Hydrogens (ID: AddExplicitH)
Neutralize (ID: Neutralize)
Clean 2D (ID: Clean2D)


$$$$

  Mrv1812 02121911042D          

 52 51  0  0  0  0            999 V2000
    0.0024   -0.0156    0.0000 C   0  0  0  0  0  0  0  0  0  0  0  0
    0.7169    0.3969    0.0000 C   0  0  0  0  0  0  0  0  0  0  0  0
    1.4314   -0.0156    0.0000 C   0  0  0  0  0  0  0  0  0  0  0  0
    2.1458    0.3969    0.0000 C   0  0  0  0  0  0  0  0  0  0  0  0
    2.8603   -0.0156    0.0000 C   0  0  0  0  0  0  0  0  0  0  0  0
    3.5748    0.3969    0.0000 C   0  0  0  0  0  0  0  0  0  0  0  0
    4.2892   -0.0156    0.0000 C   0  0  0  0  0  0  0  0  0  0  0  0
    5.0037    0.3969    0.0000 C   0  0  0  0  0  0  0  0  0  0  0  0
    5.7182   -0.0156    0.0000 C   0  0  0  0  0  0  0  0  0  0  0  0
    6.4327    0.3969    0.0000 C   0  0  0  0  0  0  0  0  0  0  0  0
    7.1471   -0.0156    0.0000 C   0  0  0  0  0  0  0  0  0  0  0  0
    7.8616    0.3969    0.0000 C   0  0  0  0  0  0  0  0  0  0  0  0
    8.5761   -0.0156    0.0000 C   0  0  0  0  0  0  0  0  0  0  0  0
    9.2905    0.3969    0.0000 C   0  0  0  0  0  0  0  0  0  0  0  0
   10.0050   -0.0156    0.0000 N   0  0  0  0  0  0  0  0  0  0  0  0
   10.7195    0.3969    0.0000 C   0  0  0  0  0  0  0  0  0  0  0  0
   10.0050   -0.8406    0.0000 C   0  0  0  0  0  0  0  0  0  0  0  0
   -0.4101    0.6988    0.0000 H   0  0  0  0  0  0  0  0  0  0  0  0
   -0.7121   -0.4281    0.0000 H   0  0  0  0  0  0  0  0  0  0  0  0
    0.4149   -0.7301    0.0000 H   0  0  0  0  0  0  0  0  0  0  0  0
    1.0871    1.1341    0.0000 H   0  0  0  0  0  0  0  0  0  0  0  0
    0.3466    1.1341    0.0000 H   0  0  0  0  0  0  0  0  0  0  0  0
    1.0611   -0.7529    0.0000 H   0  0  0  0  0  0  0  0  0  0  0  0
    1.8016   -0.7529    0.0000 H   0  0  0  0  0  0  0  0  0  0  0  0
    2.5161    1.1341    0.0000 H   0  0  0  0  0  0  0  0  0  0  0  0
    1.7756    1.1341    0.0000 H   0  0  0  0  0  0  0  0  0  0  0  0
    2.4900   -0.7529    0.0000 H   0  0  0  0  0  0  0  0  0  0  0  0
    3.2306   -0.7529    0.0000 H   0  0  0  0  0  0  0  0  0  0  0  0
    3.9450    1.1341    0.0000 H   0  0  0  0  0  0  0  0  0  0  0  0
    3.2045    1.1341    0.0000 H   0  0  0  0  0  0  0  0  0  0  0  0
    3.9190   -0.7529    0.0000 H   0  0  0  0  0  0  0  0  0  0  0  0
    4.6595   -0.7529    0.0000 H   0  0  0  0  0  0  0  0  0  0  0  0
    5.3740    1.1341    0.0000 H   0  0  0  0  0  0  0  0  0  0  0  0
    4.6335    1.1341    0.0000 H   0  0  0  0  0  0  0  0  0  0  0  0
    5.3479   -0.7529    0.0000 H   0  0  0  0  0  0  0  0  0  0  0  0
    6.0884   -0.7529    0.0000 H   0  0  0  0  0  0  0  0  0  0  0  0
    6.8029    1.1341    0.0000 H   0  0  0  0  0  0  0  0  0  0  0  0
    6.0624    1.1341    0.0000 H   0  0  0  0  0  0  0  0  0  0  0  0
    6.7769   -0.7529    0.0000 H   0  0  0  0  0  0  0  0  0  0  0  0
    7.5174   -0.7529    0.0000 H   0  0  0  0  0  0  0  0  0  0  0  0
    8.2319    1.1341    0.0000 H   0  0  0  0  0  0  0  0  0  0  0  0
    7.4913    1.1341    0.0000 H   0  0  0  0  0  0  0  0  0  0  0  0
    8.2058   -0.7529    0.0000 H   0  0  0  0  0  0  0  0  0  0  0  0
    8.9463   -0.7529    0.0000 H   0  0  0  0  0  0  0  0  0  0  0  0
    9.6608    1.1341    0.0000 H   0  0  0  0  0  0  0  0  0  0  0  0
    8.9203    1.1341    0.0000 H   0  0  0  0  0  0  0  0  0  0  0  0
   11.1320   -0.3176    0.0000 H   0  0  0  0  0  0  0  0  0  0  0  0
   11.4340    0.8094    0.0000 H   0  0  0  0  0  0  0  0  0  0  0  0
   10.3070    1.1113    0.0000 H   0  0  0  0  0  0  0  0  0  0  0  0
    9.1800   -0.8406    0.0000 H   0  0  0  0  0  0  0  0  0  0  0  0
   10.0050   -1.6656    0.0000 H   0  0  0  0  0  0  0  0  0  0  0  0
   10.8300   -0.8406    0.0000 H   0  0  0  0  0  0  0  0  0  0  0  0
  1  2  1  0  0  0  0
  2  3  1  0  0  0  0
  3  4  1  0  0  0  0
  4  5  1  0  0  0  0
  5  6  1  0  0  0  0
  6  7  1  0  0  0  0
  7  8  1  0  0  0  0
  8  9  1  0  0  0  0
  9 10  1  0  0  0  0
 10 11  1  0  0  0  0
 11 12  1  0  0  0  0
 12 13  1  0  0  0  0
 13 14  1  0  0  0  0
 14 15  1  0  0  0  0
 15 16  1  0  0  0  0
 15 17  1  0  0  0  0
  1 18  1  0  0  0  0
  1 19  1  0  0  0  0
  1 20  1  0  0  0  0
  2 21  1  0  0  0  0
  2 22  1  0  0  0  0
  3 23  1  0  0  0  0
  3 24  1  0  0  0  0
  4 25  1  0  0  0  0
  4 26  1  0  0  0  0
  5 27  1  0  0  0  0
  5 28  1  0  0  0  0
  6 29  1  0  0  0  0
  6 30  1  0  0  0  0
  7 31  1  0  0  0  0
  7 32  1  0  0  0  0
  8 33  1  0  0  0  0
  8 34  1  0  0  0  0
  9 35  1  0  0  0  0
  9 36  1  0  0  0  0
 10 37  1  0  0  0  0
 10 38  1  0  0  0  0
 11 39  1  0  0  0  0
 11 40  1  0  0  0  0
 12 41  1  0  0  0  0
 12 42  1  0  0  0  0
 13 43  1  0  0  0  0
 13 44  1  0  0  0  0
 14 45  1  0  0  0  0
 14 46  1  0  0  0  0
 16 47  1  0  0  0  0
 16 48  1  0  0  0  0
 16 49  1  0  0  0  0
 17 50  1  0  0  0  0
 17 51  1  0  0  0  0
 17 52  1  0  0  0  0
M  END
>  <id_input>
3420, 3421

>  <InChIKey>
SFBHPFQSSDCYSL-UHFFFAOYSA-N

>  <substance_name>
N,N-dimethyltetradecan-1-amine

>  <casrn>
112-75-4

>  <Molecular weight>
241.455810546875

>  <guideline>
OECD Guideline 404 (Acute Dermal Irritation / Corrosion)

>  <species>
rabbit

>  <type_of_coverage>
semiocclusive

>  <max_duration(hrs)>
4.0

>  <vehicle>
unchanged (no vehicle)

>  <edema/ erythema score>
2.45

>  <max_score>
4.0

>  <reversibility>
0.0

>  <Outcome>
1

>  <StandardizerResult>
Remove Explicit Hydrogens (ID: RemoveExplicitH)
Clear Stereo (ID: ClearStereo)
Wedge Clean (ID: WedgeClean)
Mesomerize (ID: Mesomerize)
Tautomerize (ID: Tautomerize)
Add Explicit Hydrogens (ID: AddExplicitH)
Neutralize (ID: Neutralize)
Clean 2D (ID: Clean2D)


$$$$

  Mrv1812 02121911042D          

 25 24  0  0  0  0            999 V2000
    0.0000    0.6137    0.0000 C   0  0  0  0  0  0  0  0  0  0  0  0
    0.7145    0.2012    0.0000 C   0  0  0  0  0  0  0  0  0  0  0  0
    1.4290    0.6137    0.0000 O   0  0  0  0  0  0  0  0  0  0  0  0
    2.1434    0.2012    0.0000 C   0  0  0  0  0  0  0  0  0  0  0  0
    2.8579    0.6137    0.0000 C   0  0  0  0  0  0  0  0  0  0  0  0
    3.5724    0.2012    0.0000 O   0  0  0  0  0  0  0  0  0  0  0  0
    4.2868    0.6137    0.0000 C   0  0  0  0  0  0  0  0  0  0  0  0
    4.2868    1.4387    0.0000 O   0  0  0  0  0  0  0  0  0  0  0  0
    5.0013    0.2012    0.0000 C   0  0  0  0  0  0  0  0  0  0  0  0
    5.7158    0.6137    0.0000 C   0  0  0  0  0  0  0  0  0  0  0  0
    5.0013   -0.6238    0.0000 C   0  0  0  0  0  0  0  0  0  0  0  0
    0.4125    1.3282    0.0000 H   0  0  0  0  0  0  0  0  0  0  0  0
   -0.7145    1.0262    0.0000 H   0  0  0  0  0  0  0  0  0  0  0  0
   -0.4125   -0.1008    0.0000 H   0  0  0  0  0  0  0  0  0  0  0  0
    0.3442   -0.5360    0.0000 H   0  0  0  0  0  0  0  0  0  0  0  0
    1.0847   -0.5360    0.0000 H   0  0  0  0  0  0  0  0  0  0  0  0
    1.7732   -0.5360    0.0000 H   0  0  0  0  0  0  0  0  0  0  0  0
    2.5137   -0.5360    0.0000 H   0  0  0  0  0  0  0  0  0  0  0  0
    3.2282    1.3510    0.0000 H   0  0  0  0  0  0  0  0  0  0  0  0
    2.4876    1.3510    0.0000 H   0  0  0  0  0  0  0  0  0  0  0  0
    6.1283   -0.1008    0.0000 H   0  0  0  0  0  0  0  0  0  0  0  0
    6.4302    1.0262    0.0000 H   0  0  0  0  0  0  0  0  0  0  0  0
    5.3033    1.3282    0.0000 H   0  0  0  0  0  0  0  0  0  0  0  0
    4.2868   -1.0363    0.0000 H   0  0  0  0  0  0  0  0  0  0  0  0
    5.7158   -1.0363    0.0000 H   0  0  0  0  0  0  0  0  0  0  0  0
  1  2  1  0  0  0  0
  2  3  1  0  0  0  0
  3  4  1  0  0  0  0
  4  5  1  0  0  0  0
  5  6  1  0  0  0  0
  6  7  1  0  0  0  0
  7  8  2  0  0  0  0
  7  9  1  0  0  0  0
  9 10  1  0  0  0  0
  9 11  2  0  0  0  0
  1 12  1  0  0  0  0
  1 13  1  0  0  0  0
  1 14  1  0  0  0  0
  2 15  1  0  0  0  0
  2 16  1  0  0  0  0
  4 17  1  0  0  0  0
  4 18  1  0  0  0  0
  5 19  1  0  0  0  0
  5 20  1  0  0  0  0
 10 21  1  0  0  0  0
 10 22  1  0  0  0  0
 10 23  1  0  0  0  0
 11 24  1  0  0  0  0
 11 25  1  0  0  0  0
M  END
>  <id_input>
2444

>  <InChIKey>
SFPNZPQIIAJXGL-UHFFFAOYSA-N

>  <substance_name>
2-ethoxyethyl 2-methylprop-2-enoate

>  <casrn>
2370-63-0

>  <Molecular weight>
158.19496154785156

>  <guideline>
OECD Guideline 404 (Acute Dermal Irritation / Corrosion)

>  <species>
rabbit

>  <type_of_coverage>
semiocclusive

>  <max_duration(hrs)>
4.0

>  <vehicle>
unchanged (no vehicle)

>  <edema/ erythema score>
1.55666666666666

>  <max_score>
4.0

>  <reversibility>
0.0

>  <Outcome>
1

>  <StandardizerResult>
Remove Explicit Hydrogens (ID: RemoveExplicitH)
Clear Stereo (ID: ClearStereo)
Wedge Clean (ID: WedgeClean)
Mesomerize (ID: Mesomerize)
Tautomerize (ID: Tautomerize)
Add Explicit Hydrogens (ID: AddExplicitH)
Neutralize (ID: Neutralize)
Clean 2D (ID: Clean2D)


$$$$

  Mrv1812 02121911042D          

 59 59  0  0  0  0            999 V2000
   -3.0693   -1.5404    0.0000 C   0  0  0  0  0  0  0  0  0  0  0  0
   -2.3548   -1.1279    0.0000 C   0  0  0  0  0  0  0  0  0  0  0  0
   -1.6403   -1.5404    0.0000 C   0  0  0  0  0  0  0  0  0  0  0  0
   -1.6403   -2.3654    0.0000 O   0  0  0  0  0  0  0  0  0  0  0  0
   -0.9258   -1.1279    0.0000 O   0  0  0  0  0  0  0  0  0  0  0  0
   -0.2114   -1.5404    0.0000 C   0  0  0  0  0  0  0  0  0  0  0  0
    0.5031   -1.1279    0.0000 C   0  0  0  0  0  0  0  0  0  0  0  0
    1.2176   -1.5404    0.0000 C   0  0  0  0  0  0  0  0  0  0  0  0
    1.2176   -2.3654    0.0000 C   0  0  0  0  0  0  0  0  0  0  0  0
    1.9320   -1.1279    0.0000 C   0  0  0  0  0  0  0  0  0  0  0  0
    2.6465   -1.5404    0.0000 C   0  0  0  0  0  0  0  0  0  0  0  0
    3.3610   -1.1279    0.0000 C   0  0  0  0  0  0  0  0  0  0  0  0
    4.0755   -1.5404    0.0000 C   0  0  0  0  0  0  0  0  0  0  0  0
    4.0755   -2.3654    0.0000 C   0  0  0  0  0  0  0  0  0  0  0  0
    4.7899   -1.1279    0.0000 C   0  0  0  0  0  0  0  0  0  0  0  0
    5.5044   -1.5404    0.0000 C   0  0  0  0  0  0  0  0  0  0  0  0
    6.2189   -1.1279    0.0000 C   0  0  0  0  0  0  0  0  0  0  0  0
    6.9333   -1.5404    0.0000 C   0  0  0  0  0  0  0  0  0  0  0  0
    6.9333   -2.3654    0.0000 C   0  0  0  0  0  0  0  0  0  0  0  0
    7.6478   -1.1279    0.0000 C   0  0  0  0  0  0  0  0  0  0  0  0
    7.6478   -0.3029    0.0000 C   0  0  0  0  0  0  0  0  0  0  0  0
    6.9333    0.1096    0.0000 C   0  0  0  0  0  0  0  0  0  0  0  0
    6.2189   -0.3029    0.0000 C   0  0  0  0  0  0  0  0  0  0  0  0
    5.9367    0.4723    0.0000 C   0  0  0  0  0  0  0  0  0  0  0  0
    5.4064   -0.4462    0.0000 C   0  0  0  0  0  0  0  0  0  0  0  0
   -3.4818   -0.8260    0.0000 H   0  0  0  0  0  0  0  0  0  0  0  0
   -3.7837   -1.9529    0.0000 H   0  0  0  0  0  0  0  0  0  0  0  0
   -2.6568   -2.2549    0.0000 H   0  0  0  0  0  0  0  0  0  0  0  0
   -1.9845   -0.3907    0.0000 H   0  0  0  0  0  0  0  0  0  0  0  0
   -2.7250   -0.3907    0.0000 H   0  0  0  0  0  0  0  0  0  0  0  0
   -0.5816   -2.2777    0.0000 H   0  0  0  0  0  0  0  0  0  0  0  0
    0.1589   -2.2777    0.0000 H   0  0  0  0  0  0  0  0  0  0  0  0
    0.5031   -0.3029    0.0000 H   0  0  0  0  0  0  0  0  0  0  0  0
    0.3926   -2.3654    0.0000 H   0  0  0  0  0  0  0  0  0  0  0  0
    1.2176   -3.1904    0.0000 H   0  0  0  0  0  0  0  0  0  0  0  0
    2.0426   -2.3654    0.0000 H   0  0  0  0  0  0  0  0  0  0  0  0
    1.9320   -0.3029    0.0000 H   0  0  0  0  0  0  0  0  0  0  0  0
    2.6465   -2.3654    0.0000 H   0  0  0  0  0  0  0  0  0  0  0  0
    3.3610   -0.3029    0.0000 H   0  0  0  0  0  0  0  0  0  0  0  0
    3.2505   -2.3654    0.0000 H   0  0  0  0  0  0  0  0  0  0  0  0
    4.0755   -3.1904    0.0000 H   0  0  0  0  0  0  0  0  0  0  0  0
    4.9005   -2.3654    0.0000 H   0  0  0  0  0  0  0  0  0  0  0  0
    4.2714   -0.4862    0.0000 H   0  0  0  0  0  0  0  0  0  0  0  0
    5.5044   -2.3654    0.0000 H   0  0  0  0  0  0  0  0  0  0  0  0
    6.1083   -2.3654    0.0000 H   0  0  0  0  0  0  0  0  0  0  0  0
    6.9333   -3.1904    0.0000 H   0  0  0  0  0  0  0  0  0  0  0  0
    7.7583   -2.3654    0.0000 H   0  0  0  0  0  0  0  0  0  0  0  0
    8.1012   -1.8172    0.0000 H   0  0  0  0  0  0  0  0  0  0  0  0
    8.4714   -1.1759    0.0000 H   0  0  0  0  0  0  0  0  0  0  0  0
    8.4714   -0.2550    0.0000 H   0  0  0  0  0  0  0  0  0  0  0  0
    8.1012    0.3863    0.0000 H   0  0  0  0  0  0  0  0  0  0  0  0
    7.3036    0.8468    0.0000 H   0  0  0  0  0  0  0  0  0  0  0  0
    6.5631    0.8468    0.0000 H   0  0  0  0  0  0  0  0  0  0  0  0
    5.8554    1.2933    0.0000 H   0  0  0  0  0  0  0  0  0  0  0  0
    5.1593    0.7486    0.0000 H   0  0  0  0  0  0  0  0  0  0  0  0
    5.3556   -0.1133    0.0000 H   0  0  0  0  0  0  0  0  0  0  0  0
    4.7585    0.0646    0.0000 H   0  0  0  0  0  0  0  0  0  0  0  0
    4.5843   -0.5154    0.0000 H   0  0  0  0  0  0  0  0  0  0  0  0
    5.8056   -1.1682    0.0000 H   0  0  0  0  0  0  0  0  0  0  0  0
  1  2  1  0  0  0  0
  2  3  1  0  0  0  0
  3  4  2  0  0  0  0
  3  5  1  0  0  0  0
  5  6  1  0  0  0  0
  7  6  1  4  0  0  0
  7  8  2  0  0  0  0
  8  9  1  0  0  0  0
 10  8  1  4  0  0  0
 10 11  2  0  0  0  0
 12 11  1  4  0  0  0
 12 13  2  0  0  0  0
 13 14  1  0  0  0  0
 15 13  1  4  0  0  0
 15 16  2  0  0  0  0
 16 17  1  0  0  0  0
 18 17  2  0  0  0  0
 18 19  1  0  0  0  0
 20 18  1  0  0  0  0
 21 20  1  0  0  0  0
 22 21  1  0  0  0  0
 23 22  1  0  0  0  0
 23 24  1  0  0  0  0
 23 25  1  0  0  0  0
 17 23  1  0  0  0  0
  1 26  1  0  0  0  0
  1 27  1  0  0  0  0
  1 28  1  0  0  0  0
  2 29  1  0  0  0  0
  2 30  1  0  0  0  0
  6 31  1  0  0  0  0
  6 32  1  0  0  0  0
  7 33  1  0  0  0  0
  9 34  1  0  0  0  0
  9 35  1  0  0  0  0
  9 36  1  0  0  0  0
 10 37  1  0  0  0  0
 11 38  1  0  0  0  0
 12 39  1  0  0  0  0
 14 40  1  0  0  0  0
 14 41  1  0  0  0  0
 14 42  1  0  0  0  0
 15 43  1  0  0  0  0
 16 44  1  0  0  0  0
 19 45  1  0  0  0  0
 19 46  1  0  0  0  0
 19 47  1  0  0  0  0
 20 48  1  0  0  0  0
 20 49  1  0  0  0  0
 21 50  1  0  0  0  0
 21 51  1  0  0  0  0
 22 52  1  0  0  0  0
 22 53  1  0  0  0  0
 24 54  1  0  0  0  0
 24 55  1  0  0  0  0
 24 56  1  0  0  0  0
 25 57  1  0  0  0  0
 25 58  1  0  0  0  0
 25 59  1  0  0  0  0
M  END
>  <id_input>
3530

>  <InChIKey>
SFRPDSKECHTFQA-UHFFFAOYSA-N

>  <substance_name>
O~15~-propionylretinoic acid

>  <casrn>
7069-42-3

>  <Molecular weight>
342.5148620605469

>  <guideline>
OECD Guideline 404 (Acute Dermal Irritation / Corrosion)

>  <species>
rabbit

>  <type_of_coverage>
semiocclusive

>  <max_duration(hrs)>
4.0

>  <vehicle>
unchanged (no vehicle)

>  <edema/ erythema score>
2.1

>  <max_score>
4.0

>  <reversibility>
0.0

>  <Outcome>
1

>  <StandardizerResult>
Remove Explicit Hydrogens (ID: RemoveExplicitH)
Clear Stereo (ID: ClearStereo)
Wedge Clean (ID: WedgeClean)
Mesomerize (ID: Mesomerize)
Tautomerize (ID: Tautomerize)
Add Explicit Hydrogens (ID: AddExplicitH)
Neutralize (ID: Neutralize)
Clean 2D (ID: Clean2D)


$$$$

  Mrv1812 02121911042D          

 26 27  0  0  0  0            999 V2000
   -0.8004   -2.4835    0.0000 C   0  0  0  0  0  0  0  0  0  0  0  0
   -0.0859   -2.0710    0.0000 O   0  0  0  0  0  0  0  0  0  0  0  0
   -0.0859   -1.2460    0.0000 C   0  0  0  0  0  0  0  0  0  0  0  0
    0.6285   -0.8335    0.0000 C   0  0  0  0  0  0  0  0  0  0  0  0
    0.6285   -0.0085    0.0000 C   0  0  0  0  0  0  0  0  0  0  0  0
   -0.0859    0.4040    0.0000 C   0  0  0  0  0  0  0  0  0  0  0  0
   -0.8004   -0.0085    0.0000 C   0  0  0  0  0  0  0  0  0  0  0  0
   -0.8004   -0.8335    0.0000 C   0  0  0  0  0  0  0  0  0  0  0  0
   -0.0859    1.2290    0.0000 C   0  0  0  0  0  0  0  0  0  0  0  0
   -0.8004    1.6415    0.0000 C   0  0  0  0  0  0  0  0  0  0  0  0
   -1.2129    2.3559    0.0000 C   0  0  0  0  0  0  0  0  0  0  0  0
   -1.6254    1.6415    0.0000 C   0  0  0  0  0  0  0  0  0  0  0  0
   -1.2129   -1.7691    0.0000 H   0  0  0  0  0  0  0  0  0  0  0  0
   -1.5149   -2.8960    0.0000 H   0  0  0  0  0  0  0  0  0  0  0  0
   -0.3879   -3.1980    0.0000 H   0  0  0  0  0  0  0  0  0  0  0  0
    1.3430   -1.2460    0.0000 H   0  0  0  0  0  0  0  0  0  0  0  0
    1.3430    0.4040    0.0000 H   0  0  0  0  0  0  0  0  0  0  0  0
   -1.5149    0.4040    0.0000 H   0  0  0  0  0  0  0  0  0  0  0  0
   -1.5149   -1.2460    0.0000 H   0  0  0  0  0  0  0  0  0  0  0  0
    0.7377    1.2769    0.0000 H   0  0  0  0  0  0  0  0  0  0  0  0
    0.3674    1.9182    0.0000 H   0  0  0  0  0  0  0  0  0  0  0  0
   -0.2170    2.2248    0.0000 H   0  0  0  0  0  0  0  0  0  0  0  0
   -0.7596    3.0452    0.0000 H   0  0  0  0  0  0  0  0  0  0  0  0
   -1.6663    3.0452    0.0000 H   0  0  0  0  0  0  0  0  0  0  0  0
   -2.4490    1.6894    0.0000 H   0  0  0  0  0  0  0  0  0  0  0  0
   -1.9957    0.9042    0.0000 H   0  0  0  0  0  0  0  0  0  0  0  0
  1  2  1  0  0  0  0
  2  3  1  0  0  0  0
  4  3  4  0  0  0  0
  5  4  4  0  0  0  0
  6  5  4  0  0  0  0
  7  6  4  0  0  0  0
  8  7  4  0  0  0  0
  6  9  1  0  0  0  0
  9 10  1  0  0  0  0
 11 10  1  0  0  0  0
 12 11  1  0  0  0  0
  3  8  4  0  0  0  0
 10 12  1  0  0  0  0
  1 13  1  0  0  0  0
  1 14  1  0  0  0  0
  1 15  1  0  0  0  0
  4 16  1  0  0  0  0
  5 17  1  0  0  0  0
  7 18  1  0  0  0  0
  8 19  1  0  0  0  0
  9 20  1  0  0  0  0
  9 21  1  0  0  0  0
 10 22  1  0  0  0  0
 11 23  1  0  0  0  0
 11 24  1  0  0  0  0
 12 25  1  0  0  0  0
 12 26  1  0  0  0  0
M  END
>  <id_input>
963

>  <InChIKey>
SHLSJFDJYSSUIP-UHFFFAOYSA-N

>  <substance_name>
-

>  <casrn>
16510-27-3

>  <Molecular weight>
162.22825622558594

>  <guideline>
OECD Guideline 404 (Acute Dermal Irritation / Corrosion)

>  <species>
rabbit

>  <type_of_coverage>
semiocclusive

>  <max_duration(hrs)>
4.0

>  <vehicle>
unchanged (no vehicle)

>  <edema/ erythema score>
2.0

>  <max_score>
2.0

>  <reversibility>
0.0

>  <Outcome>
1

>  <StandardizerResult>
Remove Explicit Hydrogens (ID: RemoveExplicitH)
Dearomatize (ID: Dearomatize)
Clear Stereo (ID: ClearStereo)
Wedge Clean (ID: WedgeClean)
Mesomerize (ID: Mesomerize)
Tautomerize (ID: Tautomerize)
Aromatize (ID: Aromatize)
Add Explicit Hydrogens (ID: AddExplicitH)
Neutralize (ID: Neutralize)
Clean 2D (ID: Clean2D)


$$$$

  Mrv1812 02121911042D          

 28 27  0  0  0  0            999 V2000
    3.9975   -1.0343    0.0000 C   0  0  0  0  0  0  0  0  0  0  0  0
    3.2830   -1.4468    0.0000 O   0  0  0  0  0  0  0  0  0  0  0  0
    2.5686   -1.0343    0.0000 Si  0  0  0  0  0  4  0  0  0  0  0  0
    1.8541   -0.6218    0.0000 C   0  0  0  0  0  0  0  0  0  0  0  0
    1.1396   -1.0343    0.0000 C   0  0  0  0  0  0  0  0  0  0  0  0
    0.4252   -0.6218    0.0000 C   0  0  0  0  0  0  0  0  0  0  0  0
   -0.2893   -1.0343    0.0000 N   0  0  0  0  0  0  0  0  0  0  0  0
    2.9811   -0.3198    0.0000 O   0  0  0  0  0  0  0  0  0  0  0  0
    2.5686    0.3946    0.0000 C   0  0  0  0  0  0  0  0  0  0  0  0
    2.1561   -1.7488    0.0000 O   0  0  0  0  0  0  0  0  0  0  0  0
    1.3311   -1.7488    0.0000 C   0  0  0  0  0  0  0  0  0  0  0  0
    4.4100   -1.7488    0.0000 H   0  0  0  0  0  0  0  0  0  0  0  0
    4.7120   -0.6218    0.0000 H   0  0  0  0  0  0  0  0  0  0  0  0
    3.5850   -0.3198    0.0000 H   0  0  0  0  0  0  0  0  0  0  0  0
    2.2244    0.1154    0.0000 H   0  0  0  0  0  0  0  0  0  0  0  0
    1.4838    0.1154    0.0000 H   0  0  0  0  0  0  0  0  0  0  0  0
    0.4851   -1.5365    0.0000 H   0  0  0  0  0  0  0  0  0  0  0  0
    1.9018   -1.3500    0.0000 H   0  0  0  0  0  0  0  0  0  0  0  0
    0.7954    0.1154    0.0000 H   0  0  0  0  0  0  0  0  0  0  0  0
    0.0549    0.1154    0.0000 H   0  0  0  0  0  0  0  0  0  0  0  0
   -0.9693   -0.5672    0.0000 H   0  0  0  0  0  0  0  0  0  0  0  0
   -0.9926   -1.4656    0.0000 H   0  0  0  0  0  0  0  0  0  0  0  0
    3.3816    0.5345    0.0000 H   0  0  0  0  0  0  0  0  0  0  0  0
    2.7186    1.2059    0.0000 H   0  0  0  0  0  0  0  0  0  0  0  0
    1.8593    0.8160    0.0000 H   0  0  0  0  0  0  0  0  0  0  0  0
    0.6506   -2.2153    0.0000 H   0  0  0  0  0  0  0  0  0  0  0  0
    1.2299   -2.5676    0.0000 H   0  0  0  0  0  0  0  0  0  0  0  0
    1.8775   -2.3669    0.0000 H   0  0  0  0  0  0  0  0  0  0  0  0
  1  2  1  0  0  0  0
  2  3  1  0  0  0  0
  3  4  1  0  0  0  0
  4  5  1  0  0  0  0
  5  6  1  0  0  0  0
  6  7  1  0  0  0  0
  3  8  1  0  0  0  0
  8  9  1  0  0  0  0
  3 10  1  0  0  0  0
 10 11  1  0  0  0  0
  1 12  1  0  0  0  0
  1 13  1  0  0  0  0
  1 14  1  0  0  0  0
  4 15  1  0  0  0  0
  4 16  1  0  0  0  0
  5 17  1  0  0  0  0
  5 18  1  0  0  0  0
  6 19  1  0  0  0  0
  6 20  1  0  0  0  0
  7 21  1  0  0  0  0
  7 22  1  0  0  0  0
  9 23  1  0  0  0  0
  9 24  1  0  0  0  0
  9 25  1  0  0  0  0
 11 26  1  0  0  0  0
 11 27  1  0  0  0  0
 11 28  1  0  0  0  0
M  END
>  <id_input>
88

>  <InChIKey>
SJECZPVISLOESU-UHFFFAOYSA-N

>  <substance_name>
(3-aminopropyl)trimethoxysilane

>  <casrn>
13822-56-5

>  <Molecular weight>
179.28958129882812

>  <guideline>
OECD Guideline 404 (Acute Dermal Irritation / Corrosion)

>  <species>
rabbit

>  <type_of_coverage>
semiocclusive

>  <max_duration(hrs)>
4.0

>  <vehicle>
unchanged (no vehicle)

>  <edema/ erythema score>
2.0

>  <max_score>
8.0

>  <reversibility>
0.0

>  <Outcome>
1

>  <StandardizerResult>
Remove Explicit Hydrogens (ID: RemoveExplicitH)
Clear Stereo (ID: ClearStereo)
Wedge Clean (ID: WedgeClean)
Mesomerize (ID: Mesomerize)
Tautomerize (ID: Tautomerize)
Add Explicit Hydrogens (ID: AddExplicitH)
Neutralize (ID: Neutralize)
Clean 2D (ID: Clean2D)


$$$$

  Mrv1812 02121911042D          

 24 23  0  0  0  0            999 V2000
   -0.7634    0.2733    0.0000 C   0  0  0  0  0  0  0  0  0  0  0  0
   -0.0489    0.6858    0.0000 C   0  0  0  0  0  0  0  0  0  0  0  0
    0.6656    0.2733    0.0000 C   0  0  0  0  0  0  0  0  0  0  0  0
   -0.0489    1.5108    0.0000 C   0  0  0  0  0  0  0  0  0  0  0  0
   -0.7634    1.9233    0.0000 O   0  0  0  0  0  0  0  0  0  0  0  0
    0.6656    1.9233    0.0000 O   0  0  0  0  0  0  0  0  0  0  0  0
    0.6656    2.7483    0.0000 C   0  0  0  0  0  0  0  0  0  0  0  0
    0.6656    3.5733    0.0000 C   0  0  0  0  0  0  0  0  0  0  0  0
    1.4906    2.7483    0.0000 C   0  0  0  0  0  0  0  0  0  0  0  0
   -0.1594    2.7483    0.0000 C   0  0  0  0  0  0  0  0  0  0  0  0
   -1.1759    0.9878    0.0000 H   0  0  0  0  0  0  0  0  0  0  0  0
   -1.4778   -0.1392    0.0000 H   0  0  0  0  0  0  0  0  0  0  0  0
   -0.3509   -0.4412    0.0000 H   0  0  0  0  0  0  0  0  0  0  0  0
    0.6656   -0.5517    0.0000 H   0  0  0  0  0  0  0  0  0  0  0  0
    1.3801    0.6858    0.0000 H   0  0  0  0  0  0  0  0  0  0  0  0
    1.4906    3.5733    0.0000 H   0  0  0  0  0  0  0  0  0  0  0  0
    0.6656    4.3983    0.0000 H   0  0  0  0  0  0  0  0  0  0  0  0
   -0.1594    3.5733    0.0000 H   0  0  0  0  0  0  0  0  0  0  0  0
    1.1749    1.9861    0.0000 H   0  0  0  0  0  0  0  0  0  0  0  0
    2.0739    2.1649    0.0000 H   0  0  0  0  0  0  0  0  0  0  0  0
    2.2528    3.0640    0.0000 H   0  0  0  0  0  0  0  0  0  0  0  0
   -0.9216    3.0640    0.0000 H   0  0  0  0  0  0  0  0  0  0  0  0
   -0.7428    2.1649    0.0000 H   0  0  0  0  0  0  0  0  0  0  0  0
    0.1563    1.9861    0.0000 H   0  0  0  0  0  0  0  0  0  0  0  0
  1  2  1  0  0  0  0
  2  3  2  0  0  0  0
  2  4  1  0  0  0  0
  4  5  2  0  0  0  0
  4  6  1  0  0  0  0
  6  7  1  0  0  0  0
  7  8  1  0  0  0  0
  7  9  1  0  0  0  0
  7 10  1  0  0  0  0
  1 11  1  0  0  0  0
  1 12  1  0  0  0  0
  1 13  1  0  0  0  0
  3 14  1  0  0  0  0
  3 15  1  0  0  0  0
  8 16  1  0  0  0  0
  8 17  1  0  0  0  0
  8 18  1  0  0  0  0
  9 19  1  0  0  0  0
  9 20  1  0  0  0  0
  9 21  1  0  0  0  0
 10 22  1  0  0  0  0
 10 23  1  0  0  0  0
 10 24  1  0  0  0  0
M  END
>  <id_input>
5003

>  <InChIKey>
SJMYWORNLPSJQO-UHFFFAOYSA-N

>  <substance_name>
tert-butyl methacrylate

>  <casrn>
585-07-9

>  <Molecular weight>
142.195556640625

>  <guideline>
OECD Guideline 404 (Acute Dermal Irritation / Corrosion)

>  <species>
rabbit

>  <type_of_coverage>
semiocclusive

>  <max_duration(hrs)>
4.0

>  <vehicle>
unchanged (no vehicle)

>  <edema/ erythema score>
2.685

>  <max_score>
4.0

>  <reversibility>
0.0

>  <Outcome>
1

>  <StandardizerResult>
Remove Explicit Hydrogens (ID: RemoveExplicitH)
Clear Stereo (ID: ClearStereo)
Wedge Clean (ID: WedgeClean)
Mesomerize (ID: Mesomerize)
Tautomerize (ID: Tautomerize)
Add Explicit Hydrogens (ID: AddExplicitH)
Neutralize (ID: Neutralize)
Clean 2D (ID: Clean2D)


$$$$

  Mrv1812 02121911042D          

 19 19  0  0  0  0            999 V2000
    2.2032   -0.2173    0.0000 C   0  0  0  0  0  0  0  0  0  0  0  0
    1.5901    0.3348    0.0000 O   0  0  0  0  0  0  0  0  0  0  0  0
    0.8055    0.0798    0.0000 C   0  0  0  0  0  0  0  0  0  0  0  0
    0.1380    0.5647    0.0000 C   0  0  0  0  0  0  0  0  0  0  0  0
   -0.5294    0.0798    0.0000 C   0  0  0  0  0  0  0  0  0  0  0  0
   -0.2745   -0.7048    0.0000 C   0  0  0  0  0  0  0  0  0  0  0  0
    0.5505   -0.7048    0.0000 C   0  0  0  0  0  0  0  0  0  0  0  0
    1.6512   -0.8304    0.0000 H   0  0  0  0  0  0  0  0  0  0  0  0
    2.8163   -0.7693    0.0000 H   0  0  0  0  0  0  0  0  0  0  0  0
    2.7552    0.3958    0.0000 H   0  0  0  0  0  0  0  0  0  0  0  0
    0.9345    0.8947    0.0000 H   0  0  0  0  0  0  0  0  0  0  0  0
    0.0268    1.3822    0.0000 H   0  0  0  0  0  0  0  0  0  0  0  0
   -0.5008    1.0867    0.0000 H   0  0  0  0  0  0  0  0  0  0  0  0
   -1.1025    0.6733    0.0000 H   0  0  0  0  0  0  0  0  0  0  0  0
   -1.3419   -0.0634    0.0000 H   0  0  0  0  0  0  0  0  0  0  0  0
   -1.0160   -1.0665    0.0000 H   0  0  0  0  0  0  0  0  0  0  0  0
   -0.3893   -1.5218    0.0000 H   0  0  0  0  0  0  0  0  0  0  0  0
    0.6654   -1.5218    0.0000 H   0  0  0  0  0  0  0  0  0  0  0  0
    1.2920   -1.0665    0.0000 H   0  0  0  0  0  0  0  0  0  0  0  0
  1  2  1  0  0  0  0
  2  3  1  0  0  0  0
  4  3  1  0  0  0  0
  5  4  1  0  0  0  0
  6  5  1  0  0  0  0
  7  6  1  0  0  0  0
  3  7  1  0  0  0  0
  1  8  1  0  0  0  0
  1  9  1  0  0  0  0
  1 10  1  0  0  0  0
  3 11  1  0  0  0  0
  4 12  1  0  0  0  0
  4 13  1  0  0  0  0
  5 14  1  0  0  0  0
  5 15  1  0  0  0  0
  6 16  1  0  0  0  0
  6 17  1  0  0  0  0
  7 18  1  0  0  0  0
  7 19  1  0  0  0  0
M  END
>  <id_input>
4531

>  <InChIKey>
SKTCDJAMAYNROS-UHFFFAOYSA-N

>  <substance_name>
methoxycyclopentane

>  <casrn>
5614-37-9

>  <Molecular weight>
100.15888214111328

>  <guideline>
EU Method B.4 (Acute Toxicity: Dermal Irritation / Corrosion)

>  <species>
rabbit

>  <type_of_coverage>
semiocclusive

>  <max_duration(hrs)>
4.0

>  <vehicle>
unchanged (no vehicle)

>  <edema/ erythema score>
2.33333333333333

>  <max_score>
4.0

>  <reversibility>
0.0

>  <Outcome>
1

>  <StandardizerResult>
Remove Explicit Hydrogens (ID: RemoveExplicitH)
Clear Stereo (ID: ClearStereo)
Wedge Clean (ID: WedgeClean)
Mesomerize (ID: Mesomerize)
Tautomerize (ID: Tautomerize)
Add Explicit Hydrogens (ID: AddExplicitH)
Neutralize (ID: Neutralize)
Clean 2D (ID: Clean2D)


$$$$

  Mrv1812 02121911042D          

 18 18  0  0  0  0            999 V2000
    1.5863   -0.5179    0.0000 C   0  0  0  0  0  0  0  0  0  0  0  0
    0.7793   -0.3464    0.0000 C   0  0  0  0  0  0  0  0  0  0  0  0
    0.6931   -1.1669    0.0000 C   0  0  0  0  0  0  0  0  0  0  0  0
    1.0342    0.4382    0.0000 N   0  0  0  0  0  0  0  0  0  0  0  0
    0.3668    0.9231    0.0000 C   0  0  0  0  0  0  0  0  0  0  0  0
   -0.3006    0.4382    0.0000 C   0  0  0  0  0  0  0  0  0  0  0  0
   -0.0457   -0.3464    0.0000 S   0  0  0  0  0  0  0  0  0  0  0  0
    1.4147   -1.3249    0.0000 H   0  0  0  0  0  0  0  0  0  0  0  0
    2.3932   -0.6895    0.0000 H   0  0  0  0  0  0  0  0  0  0  0  0
    1.7578    0.2890    0.0000 H   0  0  0  0  0  0  0  0  0  0  0  0
   -0.0208   -0.7533    0.0000 H   0  0  0  0  0  0  0  0  0  0  0  0
    0.0241   -1.6498    0.0000 H   0  0  0  0  0  0  0  0  0  0  0  0
    0.8609   -1.9746    0.0000 H   0  0  0  0  0  0  0  0  0  0  0  0
    1.3675    1.1929    0.0000 H   0  0  0  0  0  0  0  0  0  0  0  0
    0.7541    1.6516    0.0000 H   0  0  0  0  0  0  0  0  0  0  0  0
   -0.0205    1.6516    0.0000 H   0  0  0  0  0  0  0  0  0  0  0  0
   -0.8737    1.0317    0.0000 H   0  0  0  0  0  0  0  0  0  0  0  0
   -1.1131    0.2949    0.0000 H   0  0  0  0  0  0  0  0  0  0  0  0
  1  2  1  0  0  0  0
  2  3  1  0  0  0  0
  4  2  1  0  0  0  0
  5  4  1  0  0  0  0
  6  5  1  0  0  0  0
  7  6  1  0  0  0  0
  2  7  1  0  0  0  0
  1  8  1  0  0  0  0
  1  9  1  0  0  0  0
  1 10  1  0  0  0  0
  3 11  1  0  0  0  0
  3 12  1  0  0  0  0
  3 13  1  0  0  0  0
  4 14  1  0  0  0  0
  5 15  1  0  0  0  0
  5 16  1  0  0  0  0
  6 17  1  0  0  0  0
  6 18  1  0  0  0  0
M  END
>  <id_input>
2099

>  <InChIKey>
SNPQRYOQWLOTFA-UHFFFAOYSA-N

>  <substance_name>
2,2-dimethyl-1,3-thiazolidine

>  <casrn>
19351-18-9

>  <Molecular weight>
117.21253967285156

>  <guideline>
OECD Guideline 404 (Acute Dermal Irritation / Corrosion)

>  <species>
rabbit

>  <type_of_coverage>
semiocclusive

>  <max_duration(hrs)>
4.0

>  <vehicle>
unchanged (no vehicle)

>  <edema/ erythema score>
4.0

>  <max_score>
4.0

>  <reversibility>
0.0

>  <Outcome>
1

>  <StandardizerResult>
Remove Explicit Hydrogens (ID: RemoveExplicitH)
Clear Stereo (ID: ClearStereo)
Wedge Clean (ID: WedgeClean)
Mesomerize (ID: Mesomerize)
Tautomerize (ID: Tautomerize)
Add Explicit Hydrogens (ID: AddExplicitH)
Neutralize (ID: Neutralize)
Clean 2D (ID: Clean2D)


$$$$

  Mrv1812 02121911042D          

 49 48  0  0  0  0            999 V2000
   -5.2638   -0.2245    0.0000 C   0  0  0  0  0  0  0  0  0  0  0  0
   -4.5493    0.1880    0.0000 C   0  0  0  0  0  0  0  0  0  0  0  0
   -3.8348   -0.2245    0.0000 C   0  0  0  0  0  0  0  0  0  0  0  0
   -3.1204    0.1880    0.0000 C   0  0  0  0  0  0  0  0  0  0  0  0
   -2.4059   -0.2245    0.0000 C   0  0  0  0  0  0  0  0  0  0  0  0
   -1.6914    0.1880    0.0000 C   0  0  0  0  0  0  0  0  0  0  0  0
   -0.9769   -0.2245    0.0000 C   0  0  0  0  0  0  0  0  0  0  0  0
   -0.2625    0.1880    0.0000 C   0  0  0  0  0  0  0  0  0  0  0  0
    0.4520   -0.2245    0.0000 C   0  0  0  0  0  0  0  0  0  0  0  0
    1.1665    0.1880    0.0000 C   0  0  0  0  0  0  0  0  0  0  0  0
    1.8809   -0.2245    0.0000 C   0  0  0  0  0  0  0  0  0  0  0  0
    2.5954    0.1880    0.0000 C   0  0  0  0  0  0  0  0  0  0  0  0
    3.3099   -0.2245    0.0000 C   0  0  0  0  0  0  0  0  0  0  0  0
    4.0244    0.1880    0.0000 C   0  0  0  0  0  0  0  0  0  0  0  0
    4.7388   -0.2245    0.0000 N   0  3  0  0  0  0  0  0  0  0  0  0
    5.4533    0.1880    0.0000 C   0  0  0  0  0  0  0  0  0  0  0  0
    4.7388   -1.0495    0.0000 O   0  0  0  0  0  0  0  0  0  0  0  0
   -5.6763    0.4900    0.0000 H   0  0  0  0  0  0  0  0  0  0  0  0
   -5.9782   -0.6370    0.0000 H   0  0  0  0  0  0  0  0  0  0  0  0
   -4.8513   -0.9389    0.0000 H   0  0  0  0  0  0  0  0  0  0  0  0
   -4.1790    0.9253    0.0000 H   0  0  0  0  0  0  0  0  0  0  0  0
   -4.9196    0.9253    0.0000 H   0  0  0  0  0  0  0  0  0  0  0  0
   -4.2051   -0.9617    0.0000 H   0  0  0  0  0  0  0  0  0  0  0  0
   -3.4646   -0.9617    0.0000 H   0  0  0  0  0  0  0  0  0  0  0  0
   -2.7501    0.9253    0.0000 H   0  0  0  0  0  0  0  0  0  0  0  0
   -3.4906    0.9253    0.0000 H   0  0  0  0  0  0  0  0  0  0  0  0
   -2.7761   -0.9617    0.0000 H   0  0  0  0  0  0  0  0  0  0  0  0
   -2.0356   -0.9617    0.0000 H   0  0  0  0  0  0  0  0  0  0  0  0
   -1.3212    0.9253    0.0000 H   0  0  0  0  0  0  0  0  0  0  0  0
   -2.0617    0.9253    0.0000 H   0  0  0  0  0  0  0  0  0  0  0  0
   -1.3472   -0.9617    0.0000 H   0  0  0  0  0  0  0  0  0  0  0  0
   -0.6067   -0.9617    0.0000 H   0  0  0  0  0  0  0  0  0  0  0  0
    0.1078    0.9253    0.0000 H   0  0  0  0  0  0  0  0  0  0  0  0
   -0.6327    0.9253    0.0000 H   0  0  0  0  0  0  0  0  0  0  0  0
    0.0817   -0.9617    0.0000 H   0  0  0  0  0  0  0  0  0  0  0  0
    0.8223   -0.9617    0.0000 H   0  0  0  0  0  0  0  0  0  0  0  0
    1.5367    0.9253    0.0000 H   0  0  0  0  0  0  0  0  0  0  0  0
    0.7962    0.9253    0.0000 H   0  0  0  0  0  0  0  0  0  0  0  0
    1.5107   -0.9617    0.0000 H   0  0  0  0  0  0  0  0  0  0  0  0
    2.2512   -0.9617    0.0000 H   0  0  0  0  0  0  0  0  0  0  0  0
    2.9657    0.9253    0.0000 H   0  0  0  0  0  0  0  0  0  0  0  0
    2.2252    0.9253    0.0000 H   0  0  0  0  0  0  0  0  0  0  0  0
    2.9396   -0.9617    0.0000 H   0  0  0  0  0  0  0  0  0  0  0  0
    3.6801   -0.9617    0.0000 H   0  0  0  0  0  0  0  0  0  0  0  0
    4.3946    0.9253    0.0000 H   0  0  0  0  0  0  0  0  0  0  0  0
    3.6541    0.9253    0.0000 H   0  0  0  0  0  0  0  0  0  0  0  0
    6.1678   -0.2245    0.0000 H   0  0  0  0  0  0  0  0  0  0  0  0
    5.4533    1.0130    0.0000 H   0  0  0  0  0  0  0  0  0  0  0  0
    4.0244   -1.4620    0.0000 H   0  0  0  0  0  0  0  0  0  0  0  0
  1  2  1  0  0  0  0
  2  3  1  0  0  0  0
  3  4  1  0  0  0  0
  4  5  1  0  0  0  0
  5  6  1  0  0  0  0
  6  7  1  0  0  0  0
  7  8  1  0  0  0  0
  8  9  1  0  0  0  0
  9 10  1  0  0  0  0
 10 11  1  0  0  0  0
 11 12  1  0  0  0  0
 12 13  1  0  0  0  0
 13 14  1  0  0  0  0
 14 15  1  0  0  0  0
 15 16  2  0  0  0  0
 15 17  1  0  0  0  0
  1 18  1  0  0  0  0
  1 19  1  0  0  0  0
  1 20  1  0  0  0  0
  2 21  1  0  0  0  0
  2 22  1  0  0  0  0
  3 23  1  0  0  0  0
  3 24  1  0  0  0  0
  4 25  1  0  0  0  0
  4 26  1  0  0  0  0
  5 27  1  0  0  0  0
  5 28  1  0  0  0  0
  6 29  1  0  0  0  0
  6 30  1  0  0  0  0
  7 31  1  0  0  0  0
  7 32  1  0  0  0  0
  8 33  1  0  0  0  0
  8 34  1  0  0  0  0
  9 35  1  0  0  0  0
  9 36  1  0  0  0  0
 10 37  1  0  0  0  0
 10 38  1  0  0  0  0
 11 39  1  0  0  0  0
 11 40  1  0  0  0  0
 12 41  1  0  0  0  0
 12 42  1  0  0  0  0
 13 43  1  0  0  0  0
 13 44  1  0  0  0  0
 14 45  1  0  0  0  0
 14 46  1  0  0  0  0
 16 47  1  0  0  0  0
 16 48  1  0  0  0  0
 17 49  1  0  0  0  0
M  CHG  1  15   1
M  END
>  <id_input>
4185

>  <InChIKey>
STWIEUCUSOFHEV-UHFFFAOYSA-N

>  <substance_name>
dimethyl(tetradecyl)amine oxide

>  <casrn>
3332-27-2

>  <Molecular weight>
257.4552001953125

>  <guideline>
OECD Guideline 404 (Acute Dermal Irritation / Corrosion)

>  <species>
rabbit

>  <type_of_coverage>
semiocclusive

>  <max_duration(hrs)>
4.0

>  <vehicle>
unchanged (no vehicle)

>  <edema/ erythema score>
3.0

>  <max_score>
4.0

>  <reversibility>
0.0

>  <Outcome>
1

>  <StandardizerResult>
Remove Explicit Hydrogens (ID: RemoveExplicitH)
Clear Stereo (ID: ClearStereo)
Wedge Clean (ID: WedgeClean)
Mesomerize (ID: Mesomerize)
Tautomerize (ID: Tautomerize)
Add Explicit Hydrogens (ID: AddExplicitH)
Clean 2D (ID: Clean2D)


$$$$

  Mrv1812 02121911042D          

 15 14  0  0  0  0            999 V2000
   -0.7144    0.4089    0.0000 O   0  0  0  0  0  0  0  0  0  0  0  0
    0.0000   -0.0036    0.0000 C   0  0  0  0  0  0  0  0  0  0  0  0
    0.7145    0.4089    0.0000 C   0  0  0  0  0  0  0  0  0  0  0  0
    1.4290   -0.0036    0.0000 C   0  0  0  0  0  0  0  0  0  0  0  0
    2.1434    0.4089    0.0000 C   0  0  0  0  0  0  0  0  0  0  0  0
    2.8579   -0.0036    0.0000 C   0  0  0  0  0  0  0  0  0  0  0  0
    3.5724    0.4089    0.0000 O   0  0  0  0  0  0  0  0  0  0  0  0
    0.0000   -0.8286    0.0000 H   0  0  0  0  0  0  0  0  0  0  0  0
    1.0848    1.1462    0.0000 H   0  0  0  0  0  0  0  0  0  0  0  0
    0.3442    1.1462    0.0000 H   0  0  0  0  0  0  0  0  0  0  0  0
    1.0587   -0.7408    0.0000 H   0  0  0  0  0  0  0  0  0  0  0  0
    1.7992   -0.7408    0.0000 H   0  0  0  0  0  0  0  0  0  0  0  0
    2.5137    1.1462    0.0000 H   0  0  0  0  0  0  0  0  0  0  0  0
    1.7732    1.1462    0.0000 H   0  0  0  0  0  0  0  0  0  0  0  0
    2.8579   -0.8286    0.0000 H   0  0  0  0  0  0  0  0  0  0  0  0
  1  2  2  0  0  0  0
  2  3  1  0  0  0  0
  3  4  1  0  0  0  0
  4  5  1  0  0  0  0
  5  6  1  0  0  0  0
  6  7  2  0  0  0  0
  2  8  1  0  0  0  0
  3  9  1  0  0  0  0
  3 10  1  0  0  0  0
  4 11  1  0  0  0  0
  4 12  1  0  0  0  0
  5 13  1  0  0  0  0
  5 14  1  0  0  0  0
  6 15  1  0  0  0  0
M  END
>  <id_input>
4775, 4776, 4777

>  <InChIKey>
SXRSQZLOMIGNAQ-UHFFFAOYSA-N

>  <substance_name>
pentanedial

>  <casrn>
111-30-8

>  <Molecular weight>
100.1158218383789

>  <guideline>
OECD Guideline 404 (Acute Dermal Irritation / Corrosion)

>  <species>
rabbit

>  <type_of_coverage>
semiocclusive

>  <max_duration(hrs)>
2.0

>  <vehicle>
unchanged (no vehicle)

>  <edema/ erythema score>
2.2622222222222197

>  <max_score>
3.0

>  <reversibility>
0.0

>  <Outcome>
1

>  <StandardizerResult>
Remove Explicit Hydrogens (ID: RemoveExplicitH)
Clear Stereo (ID: ClearStereo)
Wedge Clean (ID: WedgeClean)
Mesomerize (ID: Mesomerize)
Tautomerize (ID: Tautomerize)
Add Explicit Hydrogens (ID: AddExplicitH)
Neutralize (ID: Neutralize)
Clean 2D (ID: Clean2D)


$$$$

  Mrv1812 02121911042D          

 25 26  0  0  0  0            999 V2000
    1.4366   -2.2744    0.0000 N   0  0  0  0  0  0  0  0  0  0  0  0
    0.7221   -1.8619    0.0000 C   0  0  0  0  0  0  0  0  0  0  0  0
    0.0076   -2.2744    0.0000 C   0  0  0  0  0  0  0  0  0  0  0  0
   -0.7068   -1.8619    0.0000 C   0  0  0  0  0  0  0  0  0  0  0  0
   -1.4213   -2.2744    0.0000 C   0  0  0  0  0  0  0  0  0  0  0  0
   -1.4213   -3.0994    0.0000 C   0  0  0  0  0  0  0  0  0  0  0  0
   -0.7068   -3.5119    0.0000 C   0  0  0  0  0  0  0  0  0  0  0  0
    0.0076   -3.0994    0.0000 C   0  0  0  0  0  0  0  0  0  0  0  0
    0.7221   -1.0369    0.0000 C   0  0  0  0  0  0  0  0  0  0  0  0
    1.4366   -0.6244    0.0000 C   0  0  0  0  0  0  0  0  0  0  0  0
    1.4366    0.2006    0.0000 C   0  0  0  0  0  0  0  0  0  0  0  0
    0.7221    0.6131    0.0000 C   0  0  0  0  0  0  0  0  0  0  0  0
    0.0076    0.2006    0.0000 C   0  0  0  0  0  0  0  0  0  0  0  0
    0.0076   -0.6244    0.0000 C   0  0  0  0  0  0  0  0  0  0  0  0
    1.4366   -3.0994    0.0000 H   0  0  0  0  0  0  0  0  0  0  0  0
   -0.7068   -1.0369    0.0000 H   0  0  0  0  0  0  0  0  0  0  0  0
   -2.1358   -1.8619    0.0000 H   0  0  0  0  0  0  0  0  0  0  0  0
   -2.1358   -3.5119    0.0000 H   0  0  0  0  0  0  0  0  0  0  0  0
   -0.7068   -4.3369    0.0000 H   0  0  0  0  0  0  0  0  0  0  0  0
    0.7221   -3.5119    0.0000 H   0  0  0  0  0  0  0  0  0  0  0  0
    2.1510   -1.0369    0.0000 H   0  0  0  0  0  0  0  0  0  0  0  0
    2.1510    0.6131    0.0000 H   0  0  0  0  0  0  0  0  0  0  0  0
    0.7221    1.4381    0.0000 H   0  0  0  0  0  0  0  0  0  0  0  0
   -0.7068    0.6131    0.0000 H   0  0  0  0  0  0  0  0  0  0  0  0
   -0.7068   -0.2119    0.0000 H   0  0  0  0  0  0  0  0  0  0  0  0
  1  2  2  0  0  0  0
  2  3  1  0  0  0  0
  4  3  4  0  0  0  0
  5  4  4  0  0  0  0
  6  5  4  0  0  0  0
  7  6  4  0  0  0  0
  8  7  4  0  0  0  0
  2  9  1  0  0  0  0
 10  9  4  0  0  0  0
 11 10  4  0  0  0  0
 12 11  4  0  0  0  0
 13 12  4  0  0  0  0
 14 13  4  0  0  0  0
  3  8  4  0  0  0  0
  9 14  4  0  0  0  0
  1 15  1  0  0  0  0
  4 16  1  0  0  0  0
  5 17  1  0  0  0  0
  6 18  1  0  0  0  0
  7 19  1  0  0  0  0
  8 20  1  0  0  0  0
 10 21  1  0  0  0  0
 11 22  1  0  0  0  0
 12 23  1  0  0  0  0
 13 24  1  0  0  0  0
 14 25  1  0  0  0  0
M  END
>  <id_input>
649

>  <InChIKey>
SXZIXHOMFPUIRK-UHFFFAOYSA-N

>  <substance_name>
-

>  <casrn>
1013-88-3

>  <Molecular weight>
181.23313903808594

>  <guideline>
OECD Guideline 404 (Acute Dermal Irritation / Corrosion)

>  <species>
rabbit

>  <type_of_coverage>
semiocclusive

>  <max_duration(hrs)>
4.0

>  <vehicle>
unchanged (no vehicle)

>  <edema/ erythema score>
3.425

>  <max_score>
4.0

>  <reversibility>
1.0

>  <Outcome>
1

>  <StandardizerResult>
Remove Explicit Hydrogens (ID: RemoveExplicitH)
Dearomatize (ID: Dearomatize)
Clear Stereo (ID: ClearStereo)
Wedge Clean (ID: WedgeClean)
Mesomerize (ID: Mesomerize)
Tautomerize (ID: Tautomerize)
Aromatize (ID: Aromatize)
Add Explicit Hydrogens (ID: AddExplicitH)
Neutralize (ID: Neutralize)
Clean 2D (ID: Clean2D)


$$$$

  Mrv1812 02121911042D          

 32 31  0  0  0  0            999 V2000
    0.8057    5.3598    0.0000 C   0  0  0  0  0  0  0  0  0  0  0  0
    1.2182    4.6454    0.0000 C   0  0  0  0  0  0  0  0  0  0  0  0
    2.0432    4.6454    0.0000 C   0  0  0  0  0  0  0  0  0  0  0  0
    0.8057    3.9309    0.0000 C   0  0  0  0  0  0  0  0  0  0  0  0
    1.2182    3.2164    0.0000 O   0  0  0  0  0  0  0  0  0  0  0  0
    0.8057    2.5020    0.0000 P   0  0  0  0  0  0  0  0  0  0  0  0
    0.0912    2.9145    0.0000 S   0  0  0  0  0  0  0  0  0  0  0  0
    1.5201    2.0895    0.0000 S   0  0  0  0  0  0  0  0  0  0  0  0
    0.3932    1.7875    0.0000 O   0  0  0  0  0  0  0  0  0  0  0  0
    0.8057    1.0730    0.0000 C   0  0  0  0  0  0  0  0  0  0  0  0
    0.3932    0.3585    0.0000 C   0  0  0  0  0  0  0  0  0  0  0  0
    0.8057   -0.3559    0.0000 C   0  0  0  0  0  0  0  0  0  0  0  0
   -0.4318    0.3585    0.0000 C   0  0  0  0  0  0  0  0  0  0  0  0
    1.5201    5.7723    0.0000 H   0  0  0  0  0  0  0  0  0  0  0  0
    0.3932    6.0743    0.0000 H   0  0  0  0  0  0  0  0  0  0  0  0
    0.0912    4.9473    0.0000 H   0  0  0  0  0  0  0  0  0  0  0  0
    1.6307    5.3598    0.0000 H   0  0  0  0  0  0  0  0  0  0  0  0
    1.8296    3.8485    0.0000 H   0  0  0  0  0  0  0  0  0  0  0  0
    2.7576    4.2329    0.0000 H   0  0  0  0  0  0  0  0  0  0  0  0
    2.6265    5.2287    0.0000 H   0  0  0  0  0  0  0  0  0  0  0  0
    0.0684    4.3012    0.0000 H   0  0  0  0  0  0  0  0  0  0  0  0
    0.0684    3.5606    0.0000 H   0  0  0  0  0  0  0  0  0  0  0  0
   -0.6159    2.4894    0.0000 H   0  0  0  0  0  0  0  0  0  0  0  0
    1.5429    0.7028    0.0000 H   0  0  0  0  0  0  0  0  0  0  0  0
    1.5429    1.4433    0.0000 H   0  0  0  0  0  0  0  0  0  0  0  0
    1.2182    0.3585    0.0000 H   0  0  0  0  0  0  0  0  0  0  0  0
    0.0088   -0.5695    0.0000 H   0  0  0  0  0  0  0  0  0  0  0  0
    0.8057   -1.1809    0.0000 H   0  0  0  0  0  0  0  0  0  0  0  0
    1.6025   -0.5695    0.0000 H   0  0  0  0  0  0  0  0  0  0  0  0
   -0.4318    1.1835    0.0000 H   0  0  0  0  0  0  0  0  0  0  0  0
   -1.2568    0.3585    0.0000 H   0  0  0  0  0  0  0  0  0  0  0  0
   -0.4318   -0.4665    0.0000 H   0  0  0  0  0  0  0  0  0  0  0  0
  1  2  1  0  0  0  0
  2  3  1  0  0  0  0
  2  4  1  0  0  0  0
  4  5  1  0  0  0  0
  5  6  1  0  0  0  0
  6  7  1  0  0  0  0
  6  8  2  0  0  0  0
  6  9  1  0  0  0  0
  9 10  1  0  0  0  0
 10 11  1  0  0  0  0
 11 12  1  0  0  0  0
 11 13  1  0  0  0  0
  1 14  1  0  0  0  0
  1 15  1  0  0  0  0
  1 16  1  0  0  0  0
  2 17  1  0  0  0  0
  3 18  1  0  0  0  0
  3 19  1  0  0  0  0
  3 20  1  0  0  0  0
  4 21  1  0  0  0  0
  4 22  1  0  0  0  0
  7 23  1  0  0  0  0
 10 24  1  0  0  0  0
 10 25  1  0  0  0  0
 11 26  1  0  0  0  0
 12 27  1  0  0  0  0
 12 28  1  0  0  0  0
 12 29  1  0  0  0  0
 13 30  1  0  0  0  0
 13 31  1  0  0  0  0
 13 32  1  0  0  0  0
M  END
>  <id_input>
3550, 3549

>  <InChIKey>
SYFIMIPHNTZHIN-UHFFFAOYSA-N

>  <substance_name>
Phosphorodithioic acid, mixed O,O-bis(iso-Bu and pentyl) esters, zinc salts

>  <casrn>
68457-79-4

>  <Molecular weight>
241.33108520507812

>  <guideline>
OECD Guideline 404 (Acute Dermal Irritation / Corrosion)

>  <species>
rabbit

>  <type_of_coverage>
semiocclusive

>  <max_duration(hrs)>
4.0

>  <vehicle>
unchanged (no vehicle)

>  <edema/ erythema score>
1.475

>  <max_score>
4.0

>  <reversibility>
0.5

>  <Outcome>
1

>  <StandardizerResult>
Remove Explicit Hydrogens (ID: RemoveExplicitH)
Clear Stereo (ID: ClearStereo)
Wedge Clean (ID: WedgeClean)
Mesomerize (ID: Mesomerize)
Tautomerize (ID: Tautomerize)
Add Explicit Hydrogens (ID: AddExplicitH)
Neutralize (ID: Neutralize)
Clean 2D (ID: Clean2D)


$$$$

  Mrv1812 02121911042D          

 36 36  0  0  0  0            999 V2000
    1.3305    1.7103    0.0000 O   0  0  0  0  0  0  0  0  0  0  0  0
    1.3305    0.8853    0.0000 C   0  0  0  0  0  0  0  0  0  0  0  0
    2.0450    0.4728    0.0000 O   0  0  0  0  0  0  0  0  0  0  0  0
    2.7594    0.8853    0.0000 C   0  0  0  0  0  0  0  0  0  0  0  0
    3.4739    0.4728    0.0000 C   0  0  0  0  0  0  0  0  0  0  0  0
    0.6160    0.4728    0.0000 C   0  0  0  0  0  0  0  0  0  0  0  0
   -0.0984    0.8853    0.0000 C   0  0  0  0  0  0  0  0  0  0  0  0
   -0.0984    1.7103    0.0000 C   0  0  0  0  0  0  0  0  0  0  0  0
   -0.8129    0.4728    0.0000 C   0  0  0  0  0  0  0  0  0  0  0  0
   -0.8129   -0.3522    0.0000 C   0  0  0  0  0  0  0  0  0  0  0  0
   -0.0984   -0.7647    0.0000 C   0  0  0  0  0  0  0  0  0  0  0  0
    0.6160   -0.3522    0.0000 C   0  0  0  0  0  0  0  0  0  0  0  0
    0.8982   -1.1274    0.0000 C   0  0  0  0  0  0  0  0  0  0  0  0
    1.4285   -0.2089    0.0000 C   0  0  0  0  0  0  0  0  0  0  0  0
    3.1297    1.6226    0.0000 H   0  0  0  0  0  0  0  0  0  0  0  0
    2.3892    1.6226    0.0000 H   0  0  0  0  0  0  0  0  0  0  0  0
    3.0614   -0.2417    0.0000 H   0  0  0  0  0  0  0  0  0  0  0  0
    4.1884    0.0603    0.0000 H   0  0  0  0  0  0  0  0  0  0  0  0
    3.8864    1.1873    0.0000 H   0  0  0  0  0  0  0  0  0  0  0  0
    0.6160    1.2978    0.0000 H   0  0  0  0  0  0  0  0  0  0  0  0
   -0.8129    1.2978    0.0000 H   0  0  0  0  0  0  0  0  0  0  0  0
    0.6160    2.1228    0.0000 H   0  0  0  0  0  0  0  0  0  0  0  0
   -0.0984    2.5353    0.0000 H   0  0  0  0  0  0  0  0  0  0  0  0
   -0.8129    2.1228    0.0000 H   0  0  0  0  0  0  0  0  0  0  0  0
   -1.5882    0.7550    0.0000 H   0  0  0  0  0  0  0  0  0  0  0  0
   -1.5882    0.1906    0.0000 H   0  0  0  0  0  0  0  0  0  0  0  0
   -1.4723   -0.8480    0.0000 H   0  0  0  0  0  0  0  0  0  0  0  0
   -0.9837   -1.1593    0.0000 H   0  0  0  0  0  0  0  0  0  0  0  0
   -0.0072   -1.5846    0.0000 H   0  0  0  0  0  0  0  0  0  0  0  0
    0.5115   -1.3202    0.0000 H   0  0  0  0  0  0  0  0  0  0  0  0
    0.9323   -1.9517    0.0000 H   0  0  0  0  0  0  0  0  0  0  0  0
    1.6644   -1.4332    0.0000 H   0  0  0  0  0  0  0  0  0  0  0  0
    1.4904   -0.5531    0.0000 H   0  0  0  0  0  0  0  0  0  0  0  0
    2.0853   -0.7082    0.0000 H   0  0  0  0  0  0  0  0  0  0  0  0
    2.2499   -0.1325    0.0000 H   0  0  0  0  0  0  0  0  0  0  0  0
    1.0293    0.5131    0.0000 H   0  0  0  0  0  0  0  0  0  0  0  0
  1  2  2  0  0  0  0
  2  3  1  0  0  0  0
  3  4  1  0  0  0  0
  4  5  1  0  0  0  0
  2  6  1  0  0  0  0
  7  6  1  0  0  0  0
  7  8  1  0  0  0  0
  9  7  1  0  0  0  0
 10  9  1  0  0  0  0
 11 10  1  0  0  0  0
 12 11  1  0  0  0  0
 12 13  1  0  0  0  0
 12 14  1  0  0  0  0
  6 12  1  0  0  0  0
  4 15  1  0  0  0  0
  4 16  1  0  0  0  0
  5 17  1  0  0  0  0
  5 18  1  0  0  0  0
  5 19  1  0  0  0  0
  6 20  1  0  0  0  0
  7 21  1  0  0  0  0
  8 22  1  0  0  0  0
  8 23  1  0  0  0  0
  8 24  1  0  0  0  0
  9 25  1  0  0  0  0
  9 26  1  0  0  0  0
 10 27  1  0  0  0  0
 10 28  1  0  0  0  0
 11 29  1  0  0  0  0
 11 30  1  0  0  0  0
 13 31  1  0  0  0  0
 13 32  1  0  0  0  0
 13 33  1  0  0  0  0
 14 34  1  0  0  0  0
 14 35  1  0  0  0  0
 14 36  1  0  0  0  0
M  END
>  <id_input>
2090

>  <InChIKey>
TUEUDXZEBRMJEV-UHFFFAOYSA-N

>  <substance_name>
2,2,6-trimethylcyclohexyl propanoate

>  <casrn>
22471-55-2

>  <Molecular weight>
198.3018798828125

>  <guideline>
OECD Guideline 404 (Acute Dermal Irritation / Corrosion)

>  <species>
rabbit

>  <type_of_coverage>
semiocclusive

>  <max_duration(hrs)>
4.0

>  <vehicle>
unchanged (no vehicle)

>  <edema/ erythema score>
2.66666666666666

>  <max_score>
4.0

>  <reversibility>
0.0

>  <Outcome>
1

>  <StandardizerResult>
Remove Explicit Hydrogens (ID: RemoveExplicitH)
Clear Stereo (ID: ClearStereo)
Wedge Clean (ID: WedgeClean)
Mesomerize (ID: Mesomerize)
Tautomerize (ID: Tautomerize)
Add Explicit Hydrogens (ID: AddExplicitH)
Neutralize (ID: Neutralize)
Clean 2D (ID: Clean2D)


$$$$

  Mrv1812 02121911042D          

 26 25  0  0  0  0            999 V2000
    1.1311   -0.7931    0.0000 C   0  0  0  0  0  0  0  0  0  0  0  0
    1.1311    0.0319    0.0000 C   0  0  0  0  0  0  0  0  0  0  0  0
    0.4167    0.4444    0.0000 O   0  0  0  0  0  0  0  0  0  0  0  0
    1.8456    0.4444    0.0000 O   0  0  0  0  0  0  0  0  0  0  0  0
    1.8456    1.2694    0.0000 Si  0  0  0  0  0  4  0  0  0  0  0  0
    2.6706    1.2694    0.0000 C   0  0  0  0  0  0  0  0  0  0  0  0
    1.8456    2.0944    0.0000 O   0  0  0  0  0  0  0  0  0  0  0  0
    2.5601    2.5069    0.0000 C   0  0  0  0  0  0  0  0  0  0  0  0
    2.5601    3.3319    0.0000 C   0  0  0  0  0  0  0  0  0  0  0  0
    3.2746    2.0944    0.0000 O   0  0  0  0  0  0  0  0  0  0  0  0
    1.0206    1.2694    0.0000 O   0  0  0  0  0  0  0  0  0  0  0  0
    0.6081    1.9838    0.0000 C   0  0  0  0  0  0  0  0  0  0  0  0
    1.0206    2.6983    0.0000 C   0  0  0  0  0  0  0  0  0  0  0  0
   -0.2169    1.9838    0.0000 O   0  0  0  0  0  0  0  0  0  0  0  0
    0.3061   -0.7931    0.0000 H   0  0  0  0  0  0  0  0  0  0  0  0
    1.1311   -1.6181    0.0000 H   0  0  0  0  0  0  0  0  0  0  0  0
    1.9561   -0.7931    0.0000 H   0  0  0  0  0  0  0  0  0  0  0  0
    2.6706    0.4444    0.0000 H   0  0  0  0  0  0  0  0  0  0  0  0
    3.4956    1.2694    0.0000 H   0  0  0  0  0  0  0  0  0  0  0  0
    2.6706    2.0944    0.0000 H   0  0  0  0  0  0  0  0  0  0  0  0
    3.3851    3.3319    0.0000 H   0  0  0  0  0  0  0  0  0  0  0  0
    2.5601    4.1569    0.0000 H   0  0  0  0  0  0  0  0  0  0  0  0
    1.7351    3.3319    0.0000 H   0  0  0  0  0  0  0  0  0  0  0  0
    0.6240    3.4217    0.0000 H   0  0  0  0  0  0  0  0  0  0  0  0
    0.2324    2.9418    0.0000 H   0  0  0  0  0  0  0  0  0  0  0  0
    1.6598    2.1767    0.0000 H   0  0  0  0  0  0  0  0  0  0  0  0
  1  2  1  0  0  0  0
  2  3  2  0  0  0  0
  2  4  1  0  0  0  0
  4  5  1  0  0  0  0
  5  6  1  0  0  0  0
  5  7  1  0  0  0  0
  7  8  1  0  0  0  0
  8  9  1  0  0  0  0
  8 10  2  0  0  0  0
  5 11  1  0  0  0  0
 11 12  1  0  0  0  0
 12 13  1  0  0  0  0
 12 14  2  0  0  0  0
  1 15  1  0  0  0  0
  1 16  1  0  0  0  0
  1 17  1  0  0  0  0
  6 18  1  0  0  0  0
  6 19  1  0  0  0  0
  6 20  1  0  0  0  0
  9 21  1  0  0  0  0
  9 22  1  0  0  0  0
  9 23  1  0  0  0  0
 13 24  1  0  0  0  0
 13 25  1  0  0  0  0
 13 26  1  0  0  0  0
M  END
>  <id_input>
3926

>  <InChIKey>
TVJPBVNWVPUZBM-UHFFFAOYSA-N

>  <substance_name>
bis(acetyloxy)(methyl)silyl acetate

>  <casrn>
4253-34-3

>  <Molecular weight>
220.25209045410156

>  <guideline>
OECD Guideline 404 (Acute Dermal Irritation / Corrosion)

>  <species>
rabbit

>  <type_of_coverage>
semiocclusive

>  <max_duration(hrs)>
4.0

>  <vehicle>
unchanged (no vehicle)

>  <edema/ erythema score>
4.0

>  <max_score>
4.0

>  <reversibility>
1.0

>  <Outcome>
1

>  <StandardizerResult>
Remove Explicit Hydrogens (ID: RemoveExplicitH)
Clear Stereo (ID: ClearStereo)
Wedge Clean (ID: WedgeClean)
Mesomerize (ID: Mesomerize)
Tautomerize (ID: Tautomerize)
Add Explicit Hydrogens (ID: AddExplicitH)
Neutralize (ID: Neutralize)
Clean 2D (ID: Clean2D)


$$$$

  Mrv1812 02121911042D          

 16 16  0  0  0  0            999 V2000
    2.8188   -0.3006    0.0000 Cl  0  0  0  0  0  0  0  0  0  0  0  0
    2.1043    0.1119    0.0000 P   0  0  0  0  0  0  0  0  0  0  0  0
    2.5168    0.8264    0.0000 Cl  0  0  0  0  0  0  0  0  0  0  0  0
    1.6918   -0.6026    0.0000 O   0  0  0  0  0  0  0  0  0  0  0  0
    1.3898    0.5244    0.0000 O   0  0  0  0  0  0  0  0  0  0  0  0
    0.6754    0.1119    0.0000 C   0  0  0  0  0  0  0  0  0  0  0  0
   -0.0391    0.5244    0.0000 C   0  0  0  0  0  0  0  0  0  0  0  0
   -0.7536    0.1119    0.0000 C   0  0  0  0  0  0  0  0  0  0  0  0
   -0.7536   -0.7131    0.0000 C   0  0  0  0  0  0  0  0  0  0  0  0
   -0.0391   -1.1256    0.0000 C   0  0  0  0  0  0  0  0  0  0  0  0
    0.6754   -0.7131    0.0000 C   0  0  0  0  0  0  0  0  0  0  0  0
   -0.0391    1.3494    0.0000 H   0  0  0  0  0  0  0  0  0  0  0  0
   -1.4680    0.5244    0.0000 H   0  0  0  0  0  0  0  0  0  0  0  0
   -1.4680   -1.1256    0.0000 H   0  0  0  0  0  0  0  0  0  0  0  0
   -0.0391   -1.9506    0.0000 H   0  0  0  0  0  0  0  0  0  0  0  0
    1.3898   -1.1256    0.0000 H   0  0  0  0  0  0  0  0  0  0  0  0
  1  2  1  0  0  0  0
  2  3  1  0  0  0  0
  2  4  2  0  0  0  0
  2  5  1  0  0  0  0
  5  6  1  0  0  0  0
  7  6  4  0  0  0  0
  8  7  4  0  0  0  0
  9  8  4  0  0  0  0
 10  9  4  0  0  0  0
 11 10  4  0  0  0  0
  6 11  4  0  0  0  0
  7 12  1  0  0  0  0
  8 13  1  0  0  0  0
  9 14  1  0  0  0  0
 10 15  1  0  0  0  0
 11 16  1  0  0  0  0
M  END
>  <id_input>
4797

>  <InChIKey>
TXFOLHZMICYNRM-UHFFFAOYSA-N

>  <substance_name>
phenoxyphosphonoyl dichloride

>  <casrn>
770-12-7

>  <Molecular weight>
210.9824676513672

>  <guideline>
OECD Guideline 404 (Acute Dermal Irritation / Corrosion)

>  <species>
rabbit

>  <type_of_coverage>
semiocclusive

>  <max_duration(hrs)>
1.0

>  <vehicle>
unchanged (no vehicle)

>  <edema/ erythema score>
4.0

>  <max_score>
4.0

>  <reversibility>
1.0

>  <Outcome>
1

>  <StandardizerResult>
Remove Explicit Hydrogens (ID: RemoveExplicitH)
Dearomatize (ID: Dearomatize)
Clear Stereo (ID: ClearStereo)
Wedge Clean (ID: WedgeClean)
Mesomerize (ID: Mesomerize)
Tautomerize (ID: Tautomerize)
Aromatize (ID: Aromatize)
Add Explicit Hydrogens (ID: AddExplicitH)
Neutralize (ID: Neutralize)
Clean 2D (ID: Clean2D)


$$$$

  Mrv1812 02121911042D          

 15 15  0  0  0  0            999 V2000
    0.8942   -0.3536    0.0000 C   0  0  0  0  0  0  0  0  0  0  0  0
    0.1797    0.0589    0.0000 C   0  0  0  0  0  0  0  0  0  0  0  0
   -0.5347   -0.3536    0.0000 C   0  0  0  0  0  0  0  0  0  0  0  0
   -0.5347   -1.1786    0.0000 C   0  0  0  0  0  0  0  0  0  0  0  0
    0.1797   -1.5911    0.0000 C   0  0  0  0  0  0  0  0  0  0  0  0
    0.8942   -1.1786    0.0000 C   0  0  0  0  0  0  0  0  0  0  0  0
    1.6087   -1.5911    0.0000 F   0  0  0  0  0  0  0  0  0  0  0  0
    0.1797   -2.4161    0.0000 Br  0  0  0  0  0  0  0  0  0  0  0  0
   -1.2492    0.0589    0.0000 Cl  0  0  0  0  0  0  0  0  0  0  0  0
    0.1797    0.8839    0.0000 C   0  0  0  0  0  0  0  0  0  0  0  0
   -0.5347    1.2964    0.0000 O   0  0  0  0  0  0  0  0  0  0  0  0
    0.8942    1.2964    0.0000 O   0  0  0  0  0  0  0  0  0  0  0  0
    1.6087    0.0589    0.0000 H   0  0  0  0  0  0  0  0  0  0  0  0
   -1.2492   -1.5911    0.0000 H   0  0  0  0  0  0  0  0  0  0  0  0
    1.6087    0.8839    0.0000 H   0  0  0  0  0  0  0  0  0  0  0  0
  2  1  4  0  0  0  0
  3  2  4  0  0  0  0
  4  3  4  0  0  0  0
  5  4  4  0  0  0  0
  6  5  4  0  0  0  0
  6  7  1  0  0  0  0
  5  8  1  0  0  0  0
  3  9  1  0  0  0  0
  2 10  1  0  0  0  0
 10 11  2  0  0  0  0
 10 12  1  0  0  0  0
  1  6  4  0  0  0  0
  1 13  1  0  0  0  0
  4 14  1  0  0  0  0
 12 15  1  0  0  0  0
M  END
>  <id_input>
1747

>  <InChIKey>
TZFKKLGCVKORLS-UHFFFAOYSA-N

>  <substance_name>
1,3,5-trimethylbenzene; 1-ethyl-4-methylbenzene; prop-1-en-2-ylbenzene; propan-2-ylbenzene; propylbenzene

>  <casrn>
64742-95-6

>  <Molecular weight>
253.4529266357422

>  <guideline>
other: Directive 67/548/EEC (OECD TG 404)

>  <species>
rabbit

>  <type_of_coverage>
semiocclusive

>  <max_duration(hrs)>
4.0

>  <vehicle>
unchanged (no vehicle)

>  <edema/ erythema score>
1.9

>  <max_score>
2.0

>  <reversibility>
0.0

>  <Outcome>
1

>  <StandardizerResult>
Remove Explicit Hydrogens (ID: RemoveExplicitH)
Dearomatize (ID: Dearomatize)
Clear Stereo (ID: ClearStereo)
Wedge Clean (ID: WedgeClean)
Mesomerize (ID: Mesomerize)
Tautomerize (ID: Tautomerize)
Aromatize (ID: Aromatize)
Add Explicit Hydrogens (ID: AddExplicitH)
Neutralize (ID: Neutralize)
Clean 2D (ID: Clean2D)


$$$$

  Mrv1812 02121911042D          

 35 34  0  0  0  0            999 V2000
    1.5245    4.6465    0.0000 C   0  0  0  0  0  0  0  0  0  0  0  0
    1.9370    3.9320    0.0000 C   0  0  0  0  0  0  0  0  0  0  0  0
    2.7620    3.9320    0.0000 C   0  0  0  0  0  0  0  0  0  0  0  0
    1.5245    3.2175    0.0000 C   0  0  0  0  0  0  0  0  0  0  0  0
    1.9370    2.5031    0.0000 C   0  0  0  0  0  0  0  0  0  0  0  0
    2.7620    2.5031    0.0000 C   0  0  0  0  0  0  0  0  0  0  0  0
    1.5245    1.7886    0.0000 O   0  0  0  0  0  0  0  0  0  0  0  0
    1.9370    1.0741    0.0000 P   0  0  0  0  0  0  0  0  0  0  0  0
    1.2226    0.6616    0.0000 S   0  0  0  0  0  0  0  0  0  0  0  0
    2.6515    1.4866    0.0000 S   0  0  0  0  0  0  0  0  0  0  0  0
    2.3495    0.3597    0.0000 O   0  0  0  0  0  0  0  0  0  0  0  0
    1.9370   -0.3548    0.0000 C   0  0  0  0  0  0  0  0  0  0  0  0
    2.3495   -1.0693    0.0000 C   0  0  0  0  0  0  0  0  0  0  0  0
    1.1120   -0.3548    0.0000 C   0  0  0  0  0  0  0  0  0  0  0  0
    2.2390    5.0590    0.0000 H   0  0  0  0  0  0  0  0  0  0  0  0
    1.1120    5.3610    0.0000 H   0  0  0  0  0  0  0  0  0  0  0  0
    0.8101    4.2340    0.0000 H   0  0  0  0  0  0  0  0  0  0  0  0
    2.3495    4.6465    0.0000 H   0  0  0  0  0  0  0  0  0  0  0  0
    2.5485    3.1351    0.0000 H   0  0  0  0  0  0  0  0  0  0  0  0
    3.4765    3.5195    0.0000 H   0  0  0  0  0  0  0  0  0  0  0  0
    3.3454    4.5154    0.0000 H   0  0  0  0  0  0  0  0  0  0  0  0
    0.7873    3.5878    0.0000 H   0  0  0  0  0  0  0  0  0  0  0  0
    0.7873    2.8473    0.0000 H   0  0  0  0  0  0  0  0  0  0  0  0
    2.3495    1.7886    0.0000 H   0  0  0  0  0  0  0  0  0  0  0  0
    3.1387    1.7691    0.0000 H   0  0  0  0  0  0  0  0  0  0  0  0
    3.5830    2.4216    0.0000 H   0  0  0  0  0  0  0  0  0  0  0  0
    3.2756    3.1487    0.0000 H   0  0  0  0  0  0  0  0  0  0  0  0
    0.5081    1.0741    0.0000 H   0  0  0  0  0  0  0  0  0  0  0  0
    2.7620   -0.3548    0.0000 H   0  0  0  0  0  0  0  0  0  0  0  0
    1.5526   -1.2828    0.0000 H   0  0  0  0  0  0  0  0  0  0  0  0
    2.3495   -1.8943    0.0000 H   0  0  0  0  0  0  0  0  0  0  0  0
    3.1464   -1.2828    0.0000 H   0  0  0  0  0  0  0  0  0  0  0  0
    1.1120    0.4702    0.0000 H   0  0  0  0  0  0  0  0  0  0  0  0
    0.2870   -0.3548    0.0000 H   0  0  0  0  0  0  0  0  0  0  0  0
    1.1120   -1.1798    0.0000 H   0  0  0  0  0  0  0  0  0  0  0  0
  1  2  1  0  0  0  0
  2  3  1  0  0  0  0
  2  4  1  0  0  0  0
  4  5  1  0  0  0  0
  5  6  1  0  0  0  0
  5  7  1  0  0  0  0
  7  8  1  0  0  0  0
  8  9  1  0  0  0  0
  8 10  2  0  0  0  0
  8 11  1  0  0  0  0
 11 12  1  0  0  0  0
 12 13  1  0  0  0  0
 12 14  1  0  0  0  0
  1 15  1  0  0  0  0
  1 16  1  0  0  0  0
  1 17  1  0  0  0  0
  2 18  1  0  0  0  0
  3 19  1  0  0  0  0
  3 20  1  0  0  0  0
  3 21  1  0  0  0  0
  4 22  1  0  0  0  0
  4 23  1  0  0  0  0
  5 24  1  0  0  0  0
  6 25  1  0  0  0  0
  6 26  1  0  0  0  0
  6 27  1  0  0  0  0
  9 28  1  0  0  0  0
 12 29  1  0  0  0  0
 13 30  1  0  0  0  0
 13 31  1  0  0  0  0
 13 32  1  0  0  0  0
 14 33  1  0  0  0  0
 14 34  1  0  0  0  0
 14 35  1  0  0  0  0
M  END
>  <id_input>
3542, 3544

>  <InChIKey>
UAXMPVJRTGNEPS-UHFFFAOYSA-N

>  <substance_name>
Phosphorodithioic acid, mixed O,O-bis(1,3-dimethylbutyl and iso-Pr) esters, zinc salts

>  <casrn>
84605-29-8

>  <Molecular weight>
255.357666015625

>  <guideline>
OECD Guideline 404 (Acute Dermal Irritation / Corrosion)

>  <species>
guinea pig

>  <type_of_coverage>
semiocclusive

>  <max_duration(hrs)>
4.0

>  <vehicle>
other: mineral oil

>  <edema/ erythema score>
2.323

>  <max_score>
4.0

>  <reversibility>
1.0

>  <Outcome>
1

>  <StandardizerResult>
Remove Explicit Hydrogens (ID: RemoveExplicitH)
Clear Stereo (ID: ClearStereo)
Wedge Clean (ID: WedgeClean)
Mesomerize (ID: Mesomerize)
Tautomerize (ID: Tautomerize)
Add Explicit Hydrogens (ID: AddExplicitH)
Neutralize (ID: Neutralize)
Clean 2D (ID: Clean2D)


$$$$

  Mrv1812 02121911042D          

 17 16  0  0  0  0            999 V2000
    2.1417   -0.1933    0.0000 C   0  0  0  0  0  0  0  0  0  0  0  0
    1.7292    0.5211    0.0000 Si  0  0  0  0  0  4  0  0  0  0  0  0
    2.4437    0.9336    0.0000 Cl  0  0  0  0  0  0  0  0  0  0  0  0
    1.0147    0.1086    0.0000 Cl  0  0  0  0  0  0  0  0  0  0  0  0
    1.3167    1.2356    0.0000 C   0  0  0  0  0  0  0  0  0  0  0  0
    0.4917    1.2356    0.0000 C   0  0  0  0  0  0  0  0  0  0  0  0
    0.0792    1.9501    0.0000 C   0  0  0  0  0  0  0  0  0  0  0  0
   -0.7458    1.9501    0.0000 Cl  0  0  0  0  0  0  0  0  0  0  0  0
    1.4272   -0.6058    0.0000 H   0  0  0  0  0  0  0  0  0  0  0  0
    2.5542   -0.9078    0.0000 H   0  0  0  0  0  0  0  0  0  0  0  0
    2.8562    0.2192    0.0000 H   0  0  0  0  0  0  0  0  0  0  0  0
    2.0060    1.6890    0.0000 H   0  0  0  0  0  0  0  0  0  0  0  0
    1.3647    2.0592    0.0000 H   0  0  0  0  0  0  0  0  0  0  0  0
   -0.1976    0.7823    0.0000 H   0  0  0  0  0  0  0  0  0  0  0  0
    0.4437    0.4120    0.0000 H   0  0  0  0  0  0  0  0  0  0  0  0
    0.7685    2.4034    0.0000 H   0  0  0  0  0  0  0  0  0  0  0  0
    0.1272    2.7737    0.0000 H   0  0  0  0  0  0  0  0  0  0  0  0
  1  2  1  0  0  0  0
  2  3  1  0  0  0  0
  2  4  1  0  0  0  0
  2  5  1  0  0  0  0
  5  6  1  0  0  0  0
  6  7  1  0  0  0  0
  7  8  1  0  0  0  0
  1  9  1  0  0  0  0
  1 10  1  0  0  0  0
  1 11  1  0  0  0  0
  5 12  1  0  0  0  0
  5 13  1  0  0  0  0
  6 14  1  0  0  0  0
  6 15  1  0  0  0  0
  7 16  1  0  0  0  0
  7 17  1  0  0  0  0
M  END
>  <id_input>
4131

>  <InChIKey>
UCJHMXXKIKBHQP-UHFFFAOYSA-N

>  <substance_name>
dichloro(3-chloropropyl)methylsilane

>  <casrn>
7787-93-1

>  <Molecular weight>
191.5587615966797

>  <guideline>
OECD Guideline 404 (Acute Dermal Irritation / Corrosion)

>  <species>
rabbit

>  <type_of_coverage>
semiocclusive

>  <max_duration(hrs)>
0.025

>  <vehicle>
unchanged (no vehicle)

>  <edema/ erythema score>
4.0

>  <max_score>
4.0

>  <reversibility>
0.0

>  <Outcome>
1

>  <StandardizerResult>
Remove Explicit Hydrogens (ID: RemoveExplicitH)
Clear Stereo (ID: ClearStereo)
Wedge Clean (ID: WedgeClean)
Mesomerize (ID: Mesomerize)
Tautomerize (ID: Tautomerize)
Add Explicit Hydrogens (ID: AddExplicitH)
Neutralize (ID: Neutralize)
Clean 2D (ID: Clean2D)


$$$$

  Mrv1812 02121911042D          

 22 21  0  0  0  0            999 V2000
   -0.0000   -0.0024    0.0000 C   0  0  0  0  0  0  0  0  0  0  0  0
    0.7144    0.4101    0.0000 C   0  0  0  0  0  0  0  0  0  0  0  0
    1.4289   -0.0024    0.0000 C   0  0  0  0  0  0  0  0  0  0  0  0
    2.1434    0.4101    0.0000 C   0  0  0  0  0  0  0  0  0  0  0  0
    2.8578   -0.0024    0.0000 C   0  0  0  0  0  0  0  0  0  0  0  0
    3.5723    0.4101    0.0000 C   0  0  0  0  0  0  0  0  0  0  0  0
    4.2868   -0.0024    0.0000 C   0  0  0  0  0  0  0  0  0  0  0  0
    5.0013    0.4101    0.0000 Cl  0  0  0  0  0  0  0  0  0  0  0  0
    4.2868   -0.8274    0.0000 O   0  0  0  0  0  0  0  0  0  0  0  0
   -0.4125    0.7121    0.0000 H   0  0  0  0  0  0  0  0  0  0  0  0
   -0.7145   -0.4149    0.0000 H   0  0  0  0  0  0  0  0  0  0  0  0
    0.4125   -0.7169    0.0000 H   0  0  0  0  0  0  0  0  0  0  0  0
    1.0847    1.1473    0.0000 H   0  0  0  0  0  0  0  0  0  0  0  0
    0.3442    1.1473    0.0000 H   0  0  0  0  0  0  0  0  0  0  0  0
    1.0586   -0.7396    0.0000 H   0  0  0  0  0  0  0  0  0  0  0  0
    1.7992   -0.7396    0.0000 H   0  0  0  0  0  0  0  0  0  0  0  0
    2.5136    1.1473    0.0000 H   0  0  0  0  0  0  0  0  0  0  0  0
    1.7731    1.1473    0.0000 H   0  0  0  0  0  0  0  0  0  0  0  0
    2.4876   -0.7396    0.0000 H   0  0  0  0  0  0  0  0  0  0  0  0
    3.2281   -0.7396    0.0000 H   0  0  0  0  0  0  0  0  0  0  0  0
    3.9426    1.1473    0.0000 H   0  0  0  0  0  0  0  0  0  0  0  0
    3.2021    1.1473    0.0000 H   0  0  0  0  0  0  0  0  0  0  0  0
  1  2  1  0  0  0  0
  2  3  1  0  0  0  0
  3  4  1  0  0  0  0
  4  5  1  0  0  0  0
  5  6  1  0  0  0  0
  6  7  1  0  0  0  0
  7  8  1  0  0  0  0
  7  9  2  0  0  0  0
  1 10  1  0  0  0  0
  1 11  1  0  0  0  0
  1 12  1  0  0  0  0
  2 13  1  0  0  0  0
  2 14  1  0  0  0  0
  3 15  1  0  0  0  0
  3 16  1  0  0  0  0
  4 17  1  0  0  0  0
  4 18  1  0  0  0  0
  5 19  1  0  0  0  0
  5 20  1  0  0  0  0
  6 21  1  0  0  0  0
  6 22  1  0  0  0  0
M  END
>  <id_input>
4375

>  <InChIKey>
UCVODTZQZHMTPN-UHFFFAOYSA-N

>  <substance_name>
heptanoyl chloride

>  <casrn>
2528-61-2

>  <Molecular weight>
148.63052368164062

>  <guideline>
OECD Guideline 404 (Acute Dermal Irritation / Corrosion)

>  <species>
rabbit

>  <type_of_coverage>
semiocclusive

>  <max_duration(hrs)>
1.0

>  <vehicle>
unchanged (no vehicle)

>  <edema/ erythema score>
2.73333333333333

>  <max_score>
3.0

>  <reversibility>
1.0

>  <Outcome>
1

>  <StandardizerResult>
Remove Explicit Hydrogens (ID: RemoveExplicitH)
Clear Stereo (ID: ClearStereo)
Wedge Clean (ID: WedgeClean)
Mesomerize (ID: Mesomerize)
Tautomerize (ID: Tautomerize)
Add Explicit Hydrogens (ID: AddExplicitH)
Neutralize (ID: Neutralize)
Clean 2D (ID: Clean2D)


$$$$

  Mrv1812 02121911042D          

 66 65  0  0  0  0            999 V2000
   -0.2276    0.0703    0.0000 C   0  0  0  0  0  0  0  0  0  0  0  0
    0.4869   -0.3422    0.0000 C   0  0  0  0  0  0  0  0  0  0  0  0
    1.2014    0.0703    0.0000 C   0  0  0  0  0  0  0  0  0  0  0  0
    1.9158   -0.3422    0.0000 C   0  0  0  0  0  0  0  0  0  0  0  0
    2.6303    0.0703    0.0000 C   0  0  0  0  0  0  0  0  0  0  0  0
    3.3448   -0.3422    0.0000 C   0  0  0  0  0  0  0  0  0  0  0  0
    4.0592    0.0703    0.0000 C   0  0  0  0  0  0  0  0  0  0  0  0
    4.7737   -0.3422    0.0000 C   0  0  0  0  0  0  0  0  0  0  0  0
    5.4882    0.0703    0.0000 C   0  0  0  0  0  0  0  0  0  0  0  0
    6.2027   -0.3422    0.0000 C   0  0  0  0  0  0  0  0  0  0  0  0
    6.9171    0.0703    0.0000 C   0  0  0  0  0  0  0  0  0  0  0  0
    7.6316   -0.3422    0.0000 C   0  0  0  0  0  0  0  0  0  0  0  0
    8.3461    0.0703    0.0000 C   0  0  0  0  0  0  0  0  0  0  0  0
    9.0605   -0.3422    0.0000 C   0  0  0  0  0  0  0  0  0  0  0  0
    9.7750    0.0703    0.0000 C   0  0  0  0  0  0  0  0  0  0  0  0
   10.4895   -0.3422    0.0000 C   0  0  0  0  0  0  0  0  0  0  0  0
   11.2039    0.0703    0.0000 N   0  3  0  0  0  0  0  0  0  0  0  0
   11.6164   -0.6442    0.0000 C   0  0  0  0  0  0  0  0  0  0  0  0
   10.7914    0.7847    0.0000 C   0  0  0  0  0  0  0  0  0  0  0  0
   11.9184    0.4828    0.0000 C   0  0  0  0  0  0  0  0  0  0  0  0
   12.6329    0.0703    0.0000 C   0  0  0  0  0  0  0  0  0  0  0  0
   13.3474    0.4828    0.0000 O   0  0  0  0  0  0  0  0  0  0  0  0
    0.1849    0.7847    0.0000 H   0  0  0  0  0  0  0  0  0  0  0  0
   -0.9421    0.4828    0.0000 H   0  0  0  0  0  0  0  0  0  0  0  0
   -0.6401   -0.6442    0.0000 H   0  0  0  0  0  0  0  0  0  0  0  0
    0.1166   -1.0795    0.0000 H   0  0  0  0  0  0  0  0  0  0  0  0
    0.8571   -1.0795    0.0000 H   0  0  0  0  0  0  0  0  0  0  0  0
    1.5716    0.8075    0.0000 H   0  0  0  0  0  0  0  0  0  0  0  0
    0.8311    0.8075    0.0000 H   0  0  0  0  0  0  0  0  0  0  0  0
    1.5456   -1.0795    0.0000 H   0  0  0  0  0  0  0  0  0  0  0  0
    2.2861   -1.0795    0.0000 H   0  0  0  0  0  0  0  0  0  0  0  0
    3.0006    0.8075    0.0000 H   0  0  0  0  0  0  0  0  0  0  0  0
    2.2600    0.8075    0.0000 H   0  0  0  0  0  0  0  0  0  0  0  0
    2.9745   -1.0795    0.0000 H   0  0  0  0  0  0  0  0  0  0  0  0
    3.7150   -1.0795    0.0000 H   0  0  0  0  0  0  0  0  0  0  0  0
    4.4295    0.8075    0.0000 H   0  0  0  0  0  0  0  0  0  0  0  0
    3.6890    0.8075    0.0000 H   0  0  0  0  0  0  0  0  0  0  0  0
    4.4035   -1.0795    0.0000 H   0  0  0  0  0  0  0  0  0  0  0  0
    5.1440   -1.0795    0.0000 H   0  0  0  0  0  0  0  0  0  0  0  0
    5.8584    0.8075    0.0000 H   0  0  0  0  0  0  0  0  0  0  0  0
    5.1179    0.8075    0.0000 H   0  0  0  0  0  0  0  0  0  0  0  0
    5.8324   -1.0795    0.0000 H   0  0  0  0  0  0  0  0  0  0  0  0
    6.5729   -1.0795    0.0000 H   0  0  0  0  0  0  0  0  0  0  0  0
    7.2874    0.8075    0.0000 H   0  0  0  0  0  0  0  0  0  0  0  0
    6.5469    0.8075    0.0000 H   0  0  0  0  0  0  0  0  0  0  0  0
    7.2613   -1.0795    0.0000 H   0  0  0  0  0  0  0  0  0  0  0  0
    8.0019   -1.0795    0.0000 H   0  0  0  0  0  0  0  0  0  0  0  0
    8.7163    0.8075    0.0000 H   0  0  0  0  0  0  0  0  0  0  0  0
    7.9758    0.8075    0.0000 H   0  0  0  0  0  0  0  0  0  0  0  0
    8.6903   -1.0795    0.0000 H   0  0  0  0  0  0  0  0  0  0  0  0
    9.4308   -1.0795    0.0000 H   0  0  0  0  0  0  0  0  0  0  0  0
   10.1453    0.8075    0.0000 H   0  0  0  0  0  0  0  0  0  0  0  0
    9.4047    0.8075    0.0000 H   0  0  0  0  0  0  0  0  0  0  0  0
   10.1192   -1.0795    0.0000 H   0  0  0  0  0  0  0  0  0  0  0  0
   10.8597   -1.0795    0.0000 H   0  0  0  0  0  0  0  0  0  0  0  0
   11.7232   -1.4623    0.0000 H   0  0  0  0  0  0  0  0  0  0  0  0
   12.4132   -0.8584    0.0000 H   0  0  0  0  0  0  0  0  0  0  0  0
   12.1189    0.0101    0.0000 H   0  0  0  0  0  0  0  0  0  0  0  0
   11.6164    0.7775    0.0000 H   0  0  0  0  0  0  0  0  0  0  0  0
   11.2165    1.4918    0.0000 H   0  0  0  0  0  0  0  0  0  0  0  0
   10.3980    1.5098    0.0000 H   0  0  0  0  0  0  0  0  0  0  0  0
   12.6647    0.8345    0.0000 H   0  0  0  0  0  0  0  0  0  0  0  0
   12.0550    1.2964    0.0000 H   0  0  0  0  0  0  0  0  0  0  0  0
   13.0593   -0.6360    0.0000 H   0  0  0  0  0  0  0  0  0  0  0  0
   13.4318   -0.1354    0.0000 H   0  0  0  0  0  0  0  0  0  0  0  0
   14.0210    0.9590    0.0000 H   0  0  0  0  0  0  0  0  0  0  0  0
  1  2  1  0  0  0  0
  2  3  1  0  0  0  0
  3  4  1  0  0  0  0
  4  5  1  0  0  0  0
  5  6  1  0  0  0  0
  6  7  1  0  0  0  0
  7  8  1  0  0  0  0
  8  9  1  0  0  0  0
  9 10  1  0  0  0  0
 10 11  1  0  0  0  0
 11 12  1  0  0  0  0
 12 13  1  0  0  0  0
 13 14  1  0  0  0  0
 14 15  1  0  0  0  0
 15 16  1  0  0  0  0
 16 17  1  0  0  0  0
 17 18  1  0  0  0  0
 17 19  1  0  0  0  0
 17 20  1  0  0  0  0
 20 21  1  0  0  0  0
 21 22  1  0  0  0  0
  1 23  1  0  0  0  0
  1 24  1  0  0  0  0
  1 25  1  0  0  0  0
  2 26  1  0  0  0  0
  2 27  1  0  0  0  0
  3 28  1  0  0  0  0
  3 29  1  0  0  0  0
  4 30  1  0  0  0  0
  4 31  1  0  0  0  0
  5 32  1  0  0  0  0
  5 33  1  0  0  0  0
  6 34  1  0  0  0  0
  6 35  1  0  0  0  0
  7 36  1  0  0  0  0
  7 37  1  0  0  0  0
  8 38  1  0  0  0  0
  8 39  1  0  0  0  0
  9 40  1  0  0  0  0
  9 41  1  0  0  0  0
 10 42  1  0  0  0  0
 10 43  1  0  0  0  0
 11 44  1  0  0  0  0
 11 45  1  0  0  0  0
 12 46  1  0  0  0  0
 12 47  1  0  0  0  0
 13 48  1  0  0  0  0
 13 49  1  0  0  0  0
 14 50  1  0  0  0  0
 14 51  1  0  0  0  0
 15 52  1  0  0  0  0
 15 53  1  0  0  0  0
 16 54  1  0  0  0  0
 16 55  1  0  0  0  0
 18 56  1  0  0  0  0
 18 57  1  0  0  0  0
 18 58  1  0  0  0  0
 19 59  1  0  0  0  0
 19 60  1  0  0  0  0
 19 61  1  0  0  0  0
 20 62  1  0  0  0  0
 20 63  1  0  0  0  0
 21 64  1  0  0  0  0
 21 65  1  0  0  0  0
 22 66  1  0  0  0  0
M  CHG  1  17   1
M  END
>  <id_input>
4154

>  <InChIKey>
UENRCAFKOCYSLM-UHFFFAOYSA-N

>  <substance_name>
dihydrogen hexadecyl(2-hydroxyethyl)dimethylazanium phosphate

>  <casrn>
85563-48-0

>  <Molecular weight>
314.5694580078125

>  <guideline>
OECD Guideline 404 (Acute Dermal Irritation / Corrosion)

>  <species>
rabbit

>  <type_of_coverage>
semiocclusive

>  <max_duration(hrs)>
4.0

>  <vehicle>
unchanged (no vehicle)

>  <edema/ erythema score>
3.3

>  <max_score>
4.0

>  <reversibility>
1.0

>  <Outcome>
1

>  <StandardizerResult>
Remove Explicit Hydrogens (ID: RemoveExplicitH)
Clear Stereo (ID: ClearStereo)
Wedge Clean (ID: WedgeClean)
Mesomerize (ID: Mesomerize)
Tautomerize (ID: Tautomerize)
Add Explicit Hydrogens (ID: AddExplicitH)
Clean 2D (ID: Clean2D)


$$$$

  Mrv1812 02121911042D          

 29 30  0  0  0  0            999 V2000
   -1.3861   -1.8142    0.0000 C   0  0  0  0  0  0  0  0  0  0  0  0
   -1.3861   -0.9892    0.0000 C   0  0  0  0  0  0  0  0  0  0  0  0
   -0.6717   -0.5767    0.0000 C   0  0  0  0  0  0  0  0  0  0  0  0
   -0.6717    0.2483    0.0000 C   0  0  0  0  0  0  0  0  0  0  0  0
    0.0428    0.6608    0.0000 C   0  0  0  0  0  0  0  0  0  0  0  0
    0.2490   -0.1642    0.0000 C   0  0  0  0  0  0  0  0  0  0  0  0
    0.0428   -0.9892    0.0000 C   0  0  0  0  0  0  0  0  0  0  0  0
    0.7573   -0.5767    0.0000 C   0  0  0  0  0  0  0  0  0  0  0  0
    0.7573    0.2483    0.0000 C   0  0  0  0  0  0  0  0  0  0  0  0
    1.4717    0.6608    0.0000 O   0  0  0  0  0  0  0  0  0  0  0  0
    1.4717    1.4858    0.0000 C   0  0  0  0  0  0  0  0  0  0  0  0
   -2.2111   -1.8142    0.0000 H   0  0  0  0  0  0  0  0  0  0  0  0
   -1.3861   -2.6392    0.0000 H   0  0  0  0  0  0  0  0  0  0  0  0
   -0.5611   -1.8142    0.0000 H   0  0  0  0  0  0  0  0  0  0  0  0
   -1.8395   -0.2999    0.0000 H   0  0  0  0  0  0  0  0  0  0  0  0
   -2.2097   -0.9412    0.0000 H   0  0  0  0  0  0  0  0  0  0  0  0
   -1.3861   -0.1642    0.0000 H   0  0  0  0  0  0  0  0  0  0  0  0
   -0.8149    1.0608    0.0000 H   0  0  0  0  0  0  0  0  0  0  0  0
   -1.3037    0.7786    0.0000 H   0  0  0  0  0  0  0  0  0  0  0  0
    0.4237    1.3926    0.0000 H   0  0  0  0  0  0  0  0  0  0  0  0
   -0.4967    0.1887    0.0000 H   0  0  0  0  0  0  0  0  0  0  0  0
   -0.4967   -0.5170    0.0000 H   0  0  0  0  0  0  0  0  0  0  0  0
    0.0428   -1.8142    0.0000 H   0  0  0  0  0  0  0  0  0  0  0  0
    1.2106   -1.2659    0.0000 H   0  0  0  0  0  0  0  0  0  0  0  0
    1.5809   -0.6246    0.0000 H   0  0  0  0  0  0  0  0  0  0  0  0
    0.7573    1.0733    0.0000 H   0  0  0  0  0  0  0  0  0  0  0  0
    2.2686    1.2723    0.0000 H   0  0  0  0  0  0  0  0  0  0  0  0
    1.8842    2.2003    0.0000 H   0  0  0  0  0  0  0  0  0  0  0  0
    0.8884    2.0692    0.0000 H   0  0  0  0  0  0  0  0  0  0  0  0
  1  2  1  0  0  0  0
  2  3  1  0  0  0  0
  4  3  1  0  0  0  0
  5  4  1  0  0  0  0
  5  6  1  0  0  0  0
  6  7  1  0  0  0  0
  7  8  1  0  0  0  0
  8  9  1  0  0  0  0
  9 10  1  0  0  0  0
 10 11  1  0  0  0  0
  3  7  1  0  0  0  0
  9  5  1  0  0  0  0
  1 12  1  0  0  0  0
  1 13  1  0  0  0  0
  1 14  1  0  0  0  0
  2 15  1  0  0  0  0
  2 16  1  0  0  0  0
  3 17  1  0  0  0  0
  4 18  1  0  0  0  0
  4 19  1  0  0  0  0
  5 20  1  0  0  0  0
  6 21  1  0  0  0  0
  6 22  1  0  0  0  0
  7 23  1  0  0  0  0
  8 24  1  0  0  0  0
  8 25  1  0  0  0  0
  9 26  1  0  0  0  0
 11 27  1  0  0  0  0
 11 28  1  0  0  0  0
 11 29  1  0  0  0  0
M  END
>  <id_input>
279

>  <InChIKey>
UNUPWPQAAUTOII-UHFFFAOYSA-N

>  <substance_name>
-

>  <casrn>
122795-41-9

>  <Molecular weight>
154.24932861328125

>  <guideline>
OECD Guideline 404 (Acute Dermal Irritation / Corrosion)

>  <species>
rabbit

>  <type_of_coverage>
semiocclusive

>  <max_duration(hrs)>
4.0

>  <vehicle>
unchanged (no vehicle)

>  <edema/ erythema score>
1.55333333333333

>  <reversibility>
0.0

>  <Outcome>
1

>  <StandardizerResult>
Remove Explicit Hydrogens (ID: RemoveExplicitH)
Clear Stereo (ID: ClearStereo)
Wedge Clean (ID: WedgeClean)
Mesomerize (ID: Mesomerize)
Tautomerize (ID: Tautomerize)
Add Explicit Hydrogens (ID: AddExplicitH)
Neutralize (ID: Neutralize)
Clean 2D (ID: Clean2D)


$$$$

  Mrv1812 02121911042D          

  9  8  0  0  0  0            999 V2000
    1.4940   -0.0473    0.0000 Cl  0  0  0  0  0  0  0  0  0  0  0  0
    0.6690   -0.0473    0.0000 C   0  0  0  0  0  0  0  0  0  0  0  0
    0.2565   -0.7618    0.0000 C   0  0  0  0  0  0  0  0  0  0  0  0
   -0.5685   -0.7618    0.0000 C   0  0  0  0  0  0  0  0  0  0  0  0
   -0.9810   -1.4762    0.0000 Cl  0  0  0  0  0  0  0  0  0  0  0  0
    0.6210    0.7763    0.0000 H   0  0  0  0  0  0  0  0  0  0  0  0
   -0.0203    0.4060    0.0000 H   0  0  0  0  0  0  0  0  0  0  0  0
    0.6690   -1.4762    0.0000 H   0  0  0  0  0  0  0  0  0  0  0  0
   -0.9810   -0.0473    0.0000 H   0  0  0  0  0  0  0  0  0  0  0  0
  1  2  1  0  0  0  0
  2  3  1  0  0  0  0
  3  4  2  0  0  0  0
  4  5  1  4  0  0  0
  2  6  1  0  0  0  0
  2  7  1  0  0  0  0
  3  8  1  0  0  0  0
  4  9  1  0  0  0  0
M  END
>  <id_input>
1773

>  <InChIKey>
UOORRWUZONOOLO-UHFFFAOYSA-N

>  <substance_name>
1,3-dichloroprop-1-ene

>  <casrn>
10061-01-5

>  <Molecular weight>
110.96985626220703

>  <guideline>
OECD Guideline 404 (Acute Dermal Irritation / Corrosion)

>  <species>
rabbit

>  <type_of_coverage>
semiocclusive

>  <max_duration(hrs)>
4.0

>  <vehicle>
unchanged (no vehicle)

>  <edema/ erythema score>
1.5

>  <max_score>
3.0

>  <reversibility>
0.0

>  <Outcome>
1

>  <StandardizerResult>
Remove Explicit Hydrogens (ID: RemoveExplicitH)
Clear Stereo (ID: ClearStereo)
Wedge Clean (ID: WedgeClean)
Mesomerize (ID: Mesomerize)
Tautomerize (ID: Tautomerize)
Add Explicit Hydrogens (ID: AddExplicitH)
Neutralize (ID: Neutralize)
Clean 2D (ID: Clean2D)


$$$$

  Mrv1812 02121911042D          

 34 33  0  0  0  0            999 V2000
    0.0034   -0.0240    0.0000 C   0  0  0  0  0  0  0  0  0  0  0  0
    0.7179    0.3885    0.0000 C   0  0  0  0  0  0  0  0  0  0  0  0
    1.4324   -0.0240    0.0000 C   0  0  0  0  0  0  0  0  0  0  0  0
    2.1469    0.3885    0.0000 C   0  0  0  0  0  0  0  0  0  0  0  0
    2.8613   -0.0240    0.0000 C   0  0  0  0  0  0  0  0  0  0  0  0
    3.5758    0.3885    0.0000 C   0  0  0  0  0  0  0  0  0  0  0  0
    4.2903   -0.0240    0.0000 C   0  0  0  0  0  0  0  0  0  0  0  0
    5.0047    0.3885    0.0000 C   0  0  0  0  0  0  0  0  0  0  0  0
    5.7192   -0.0240    0.0000 N   0  0  0  0  0  0  0  0  0  0  0  0
    6.4337    0.3885    0.0000 C   0  0  0  0  0  0  0  0  0  0  0  0
    5.7192   -0.8490    0.0000 C   0  0  0  0  0  0  0  0  0  0  0  0
   -0.4091    0.6905    0.0000 H   0  0  0  0  0  0  0  0  0  0  0  0
   -0.7110   -0.4365    0.0000 H   0  0  0  0  0  0  0  0  0  0  0  0
    0.4159   -0.7385    0.0000 H   0  0  0  0  0  0  0  0  0  0  0  0
    1.0882    1.1257    0.0000 H   0  0  0  0  0  0  0  0  0  0  0  0
    0.3477    1.1257    0.0000 H   0  0  0  0  0  0  0  0  0  0  0  0
    1.0621   -0.7613    0.0000 H   0  0  0  0  0  0  0  0  0  0  0  0
    1.8026   -0.7613    0.0000 H   0  0  0  0  0  0  0  0  0  0  0  0
    2.5171    1.1257    0.0000 H   0  0  0  0  0  0  0  0  0  0  0  0
    1.7766    1.1257    0.0000 H   0  0  0  0  0  0  0  0  0  0  0  0
    2.4911   -0.7613    0.0000 H   0  0  0  0  0  0  0  0  0  0  0  0
    3.2316   -0.7613    0.0000 H   0  0  0  0  0  0  0  0  0  0  0  0
    3.9461    1.1257    0.0000 H   0  0  0  0  0  0  0  0  0  0  0  0
    3.2055    1.1257    0.0000 H   0  0  0  0  0  0  0  0  0  0  0  0
    3.9200   -0.7613    0.0000 H   0  0  0  0  0  0  0  0  0  0  0  0
    4.6605   -0.7613    0.0000 H   0  0  0  0  0  0  0  0  0  0  0  0
    5.3750    1.1257    0.0000 H   0  0  0  0  0  0  0  0  0  0  0  0
    4.6345    1.1257    0.0000 H   0  0  0  0  0  0  0  0  0  0  0  0
    6.8462   -0.3260    0.0000 H   0  0  0  0  0  0  0  0  0  0  0  0
    7.1482    0.8010    0.0000 H   0  0  0  0  0  0  0  0  0  0  0  0
    6.0212    1.1030    0.0000 H   0  0  0  0  0  0  0  0  0  0  0  0
    4.8942   -0.8490    0.0000 H   0  0  0  0  0  0  0  0  0  0  0  0
    5.7192   -1.6740    0.0000 H   0  0  0  0  0  0  0  0  0  0  0  0
    6.5442   -0.8490    0.0000 H   0  0  0  0  0  0  0  0  0  0  0  0
  1  2  1  0  0  0  0
  2  3  1  0  0  0  0
  3  4  1  0  0  0  0
  4  5  1  0  0  0  0
  5  6  1  0  0  0  0
  6  7  1  0  0  0  0
  7  8  1  0  0  0  0
  8  9  1  0  0  0  0
  9 10  1  0  0  0  0
  9 11  1  0  0  0  0
  1 12  1  0  0  0  0
  1 13  1  0  0  0  0
  1 14  1  0  0  0  0
  2 15  1  0  0  0  0
  2 16  1  0  0  0  0
  3 17  1  0  0  0  0
  3 18  1  0  0  0  0
  4 19  1  0  0  0  0
  4 20  1  0  0  0  0
  5 21  1  0  0  0  0
  5 22  1  0  0  0  0
  6 23  1  0  0  0  0
  6 24  1  0  0  0  0
  7 25  1  0  0  0  0
  7 26  1  0  0  0  0
  8 27  1  0  0  0  0
  8 28  1  0  0  0  0
 10 29  1  0  0  0  0
 10 30  1  0  0  0  0
 10 31  1  0  0  0  0
 11 32  1  0  0  0  0
 11 33  1  0  0  0  0
 11 34  1  0  0  0  0
M  END
>  <id_input>
3414

>  <InChIKey>
UQKAOOAFEFCDGT-UHFFFAOYSA-N

>  <substance_name>
N,N-dimethyloctan-1-amine

>  <casrn>
7378-99-6

>  <Molecular weight>
157.29632568359375

>  <guideline>
OECD Guideline 404 (Acute Dermal Irritation / Corrosion)

>  <species>
rabbit

>  <type_of_coverage>
semiocclusive

>  <max_duration(hrs)>
4.0

>  <vehicle>
unchanged (no vehicle)

>  <edema/ erythema score>
4.0

>  <reversibility>
1.0

>  <Outcome>
1

>  <StandardizerResult>
Remove Explicit Hydrogens (ID: RemoveExplicitH)
Clear Stereo (ID: ClearStereo)
Wedge Clean (ID: WedgeClean)
Mesomerize (ID: Mesomerize)
Tautomerize (ID: Tautomerize)
Add Explicit Hydrogens (ID: AddExplicitH)
Neutralize (ID: Neutralize)
Clean 2D (ID: Clean2D)


$$$$

  Mrv1812 02121911042D          

  8  8  0  0  0  0            999 V2000
    0.8488   -1.3307    0.0000 O   0  0  0  0  0  0  0  0  0  0  0  0
    0.3639   -0.6632    0.0000 C   0  0  0  0  0  0  0  0  0  0  0  0
    0.6188    0.1214    0.0000 O   0  0  0  0  0  0  0  0  0  0  0  0
   -0.0486    0.6063    0.0000 C   0  0  0  0  0  0  0  0  0  0  0  0
   -0.7161    0.1214    0.0000 C   0  0  0  0  0  0  0  0  0  0  0  0
   -0.4611   -0.6632    0.0000 O   0  0  0  0  0  0  0  0  0  0  0  0
   -0.0486    1.4313    0.0000 H   0  0  0  0  0  0  0  0  0  0  0  0
   -1.5007    0.3763    0.0000 H   0  0  0  0  0  0  0  0  0  0  0  0
  1  2  2  0  0  0  0
  3  2  1  0  0  0  0
  4  3  1  0  0  0  0
  5  4  2  0  0  0  0
  6  5  1  0  0  0  0
  2  6  1  0  0  0  0
  4  7  1  0  0  0  0
  5  8  1  0  0  0  0
M  END
>  <id_input>
2628

>  <InChIKey>
VAYTZRYEBVHVLE-UHFFFAOYSA-N

>  <substance_name>
2H-1,3-dioxol-2-one

>  <casrn>
872-36-6

>  <Molecular weight>
86.04618072509766

>  <guideline>
OECD Guideline 404 (Acute Dermal Irritation / Corrosion)

>  <species>
rabbit

>  <type_of_coverage>
semiocclusive

>  <max_duration(hrs)>
4.0

>  <vehicle>
unchanged (no vehicle)

>  <edema/ erythema score>
2.3

>  <max_score>
3.0

>  <reversibility>
0.0

>  <Outcome>
1

>  <StandardizerResult>
Remove Explicit Hydrogens (ID: RemoveExplicitH)
Clear Stereo (ID: ClearStereo)
Wedge Clean (ID: WedgeClean)
Mesomerize (ID: Mesomerize)
Tautomerize (ID: Tautomerize)
Add Explicit Hydrogens (ID: AddExplicitH)
Neutralize (ID: Neutralize)
Clean 2D (ID: Clean2D)


$$$$

  Mrv1812 02121911042D          

 17 17  0  0  0  0            999 V2000
    1.3371    1.1677    0.0000 N   0  0  0  0  0  0  0  0  0  0  0  0
    0.6226    0.7552    0.0000 C   0  0  0  0  0  0  0  0  0  0  0  0
   -0.0918    1.1677    0.0000 C   0  0  0  0  0  0  0  0  0  0  0  0
   -0.8063    0.7552    0.0000 C   0  0  0  0  0  0  0  0  0  0  0  0
   -0.8063   -0.0698    0.0000 C   0  0  0  0  0  0  0  0  0  0  0  0
   -0.0918   -0.4823    0.0000 C   0  0  0  0  0  0  0  0  0  0  0  0
    0.6226   -0.0698    0.0000 C   0  0  0  0  0  0  0  0  0  0  0  0
    1.3371   -0.4823    0.0000 C   0  0  0  0  0  0  0  0  0  0  0  0
    2.0516   -0.8948    0.0000 F   0  0  0  0  0  0  0  0  0  0  0  0
    0.9246   -1.1968    0.0000 F   0  0  0  0  0  0  0  0  0  0  0  0
    1.7496    0.2322    0.0000 F   0  0  0  0  0  0  0  0  0  0  0  0
    2.0516    0.7552    0.0000 H   0  0  0  0  0  0  0  0  0  0  0  0
    1.3371    1.9927    0.0000 H   0  0  0  0  0  0  0  0  0  0  0  0
   -0.0918    1.9927    0.0000 H   0  0  0  0  0  0  0  0  0  0  0  0
   -1.5208    1.1677    0.0000 H   0  0  0  0  0  0  0  0  0  0  0  0
   -1.5208   -0.4823    0.0000 H   0  0  0  0  0  0  0  0  0  0  0  0
   -0.0918   -1.3073    0.0000 H   0  0  0  0  0  0  0  0  0  0  0  0
  1  2  1  0  0  0  0
  3  2  4  0  0  0  0
  4  3  4  0  0  0  0
  5  4  4  0  0  0  0
  6  5  4  0  0  0  0
  7  6  4  0  0  0  0
  7  8  1  0  0  0  0
  8  9  1  0  0  0  0
  8 10  1  0  0  0  0
  8 11  1  0  0  0  0
  2  7  4  0  0  0  0
  1 12  1  0  0  0  0
  1 13  1  0  0  0  0
  3 14  1  0  0  0  0
  4 15  1  0  0  0  0
  5 16  1  0  0  0  0
  6 17  1  0  0  0  0
M  END
>  <id_input>
2227

>  <InChIKey>
VBLXCTYLWZJBKA-UHFFFAOYSA-N

>  <substance_name>
2-(trifluoromethyl)aniline

>  <casrn>
88-17-5

>  <Molecular weight>
161.12445068359375

>  <guideline>
OECD Guideline 404 (Acute Dermal Irritation / Corrosion)

>  <species>
rabbit

>  <type_of_coverage>
semiocclusive

>  <max_duration(hrs)>
4.0

>  <edema/ erythema score>
1.8

>  <max_score>
4.0

>  <reversibility>
0.0

>  <Outcome>
1

>  <StandardizerResult>
Remove Explicit Hydrogens (ID: RemoveExplicitH)
Dearomatize (ID: Dearomatize)
Clear Stereo (ID: ClearStereo)
Wedge Clean (ID: WedgeClean)
Mesomerize (ID: Mesomerize)
Tautomerize (ID: Tautomerize)
Aromatize (ID: Aromatize)
Add Explicit Hydrogens (ID: AddExplicitH)
Neutralize (ID: Neutralize)
Clean 2D (ID: Clean2D)


$$$$

  Mrv1812 02121911042D          

 30 30  0  0  0  0            999 V2000
    0.9323    1.9072    0.0000 C   0  0  0  0  0  0  0  0  0  0  0  0
    0.6501    1.1320    0.0000 C   0  0  0  0  0  0  0  0  0  0  0  0
    1.4626    0.9887    0.0000 C   0  0  0  0  0  0  0  0  0  0  0  0
   -0.0644    1.5445    0.0000 C   0  0  0  0  0  0  0  0  0  0  0  0
   -0.7789    1.1320    0.0000 C   0  0  0  0  0  0  0  0  0  0  0  0
   -1.4933    1.5445    0.0000 O   0  0  0  0  0  0  0  0  0  0  0  0
   -0.7789    0.3070    0.0000 C   0  0  0  0  0  0  0  0  0  0  0  0
   -0.0644   -0.1055    0.0000 C   0  0  0  0  0  0  0  0  0  0  0  0
   -0.5947   -0.7375    0.0000 C   0  0  0  0  0  0  0  0  0  0  0  0
    0.4659   -0.7375    0.0000 C   0  0  0  0  0  0  0  0  0  0  0  0
    0.6501    0.3070    0.0000 N   0  0  0  0  0  0  0  0  0  0  0  0
    1.7075    1.6250    0.0000 H   0  0  0  0  0  0  0  0  0  0  0  0
    1.2144    2.6825    0.0000 H   0  0  0  0  0  0  0  0  0  0  0  0
    0.1570    2.1894    0.0000 H   0  0  0  0  0  0  0  0  0  0  0  0
    0.9863    0.3151    0.0000 H   0  0  0  0  0  0  0  0  0  0  0  0
    1.8685    0.2705    0.0000 H   0  0  0  0  0  0  0  0  0  0  0  0
    2.2853    1.0493    0.0000 H   0  0  0  0  0  0  0  0  0  0  0  0
   -0.7012    2.0689    0.0000 H   0  0  0  0  0  0  0  0  0  0  0  0
   -0.0644    0.7195    0.0000 H   0  0  0  0  0  0  0  0  0  0  0  0
   -1.4933    0.7195    0.0000 H   0  0  0  0  0  0  0  0  0  0  0  0
   -2.2201    1.9349    0.0000 H   0  0  0  0  0  0  0  0  0  0  0  0
   -1.4108   -0.2233    0.0000 H   0  0  0  0  0  0  0  0  0  0  0  0
   -0.9221   -0.5055    0.0000 H   0  0  0  0  0  0  0  0  0  0  0  0
   -1.2839   -1.1910    0.0000 H   0  0  0  0  0  0  0  0  0  0  0  0
   -0.4671   -1.5526    0.0000 H   0  0  0  0  0  0  0  0  0  0  0  0
    0.2001   -0.9587    0.0000 H   0  0  0  0  0  0  0  0  0  0  0  0
    0.7116   -1.5251    0.0000 H   0  0  0  0  0  0  0  0  0  0  0  0
    1.2876   -0.8111    0.0000 H   0  0  0  0  0  0  0  0  0  0  0  0
    0.8476   -0.0061    0.0000 H   0  0  0  0  0  0  0  0  0  0  0  0
    0.4522   -0.4940    0.0000 H   0  0  0  0  0  0  0  0  0  0  0  0
  1  2  1  0  0  0  0
  2  3  1  0  0  0  0
  4  2  1  0  0  0  0
  5  4  1  0  0  0  0
  5  6  1  0  0  0  0
  7  5  1  0  0  0  0
  8  7  1  0  0  0  0
  8  9  1  0  0  0  0
  8 10  1  0  0  0  0
 11  8  1  0  0  0  0
  2 11  1  0  0  0  0
  1 12  1  0  0  0  0
  1 13  1  0  0  0  0
  1 14  1  0  0  0  0
  3 15  1  0  0  0  0
  3 16  1  0  0  0  0
  3 17  1  0  0  0  0
  4 18  1  0  0  0  0
  4 19  1  0  0  0  0
  5 20  1  0  0  0  0
  6 21  1  0  0  0  0
  7 22  1  0  0  0  0
  7 23  1  0  0  0  0
  9 24  1  0  0  0  0
  9 25  1  0  0  0  0
  9 26  1  0  0  0  0
 10 27  1  0  0  0  0
 10 28  1  0  0  0  0
 10 29  1  0  0  0  0
 11 30  1  0  0  0  0
M  END
>  <id_input>
2086, 2085

>  <InChIKey>
VDVUCLWJZJHFAV-UHFFFAOYSA-N

>  <substance_name>
2,2,6,6-tetramethylpiperidin-4-ol

>  <casrn>
2403-88-5

>  <Molecular weight>
157.25326538085938

>  <guideline>
OECD Guideline 404 (Acute Dermal Irritation / Corrosion)

>  <species>
rabbit

>  <type_of_coverage>
semiocclusive

>  <max_duration(hrs)>
74.0

>  <vehicle>
water

>  <edema/ erythema score>
2.5175

>  <max_score>
4.0

>  <reversibility>
0.5

>  <Outcome>
1

>  <StandardizerResult>
Remove Explicit Hydrogens (ID: RemoveExplicitH)
Clear Stereo (ID: ClearStereo)
Wedge Clean (ID: WedgeClean)
Mesomerize (ID: Mesomerize)
Tautomerize (ID: Tautomerize)
Add Explicit Hydrogens (ID: AddExplicitH)
Neutralize (ID: Neutralize)
Clean 2D (ID: Clean2D)


$$$$

  Mrv1812 02121911042D          

 14 13  0  0  0  0            999 V2000
    0.0000    0.0000    0.0000 C   0  0  0  0  0  0  0  0  0  0  0  0
    0.7145    0.4125    0.0000 C   0  0  0  0  0  0  0  0  0  0  0  0
    1.4290    0.0000    0.0000 O   0  0  0  0  0  0  0  0  0  0  0  0
    2.1434    0.4125    0.0000 C   0  0  0  0  0  0  0  0  0  0  0  0
    2.1434    1.2375    0.0000 O   0  0  0  0  0  0  0  0  0  0  0  0
    2.8579    0.0000    0.0000 C   0  0  0  0  0  0  0  0  0  0  0  0
    3.5724    0.4125    0.0000 Cl  0  0  0  0  0  0  0  0  0  0  0  0
   -0.4125    0.7145    0.0000 H   0  0  0  0  0  0  0  0  0  0  0  0
   -0.7145   -0.4125    0.0000 H   0  0  0  0  0  0  0  0  0  0  0  0
    0.4125   -0.7145    0.0000 H   0  0  0  0  0  0  0  0  0  0  0  0
    1.0847    1.1497    0.0000 H   0  0  0  0  0  0  0  0  0  0  0  0
    0.3442    1.1497    0.0000 H   0  0  0  0  0  0  0  0  0  0  0  0
    2.4876   -0.7372    0.0000 H   0  0  0  0  0  0  0  0  0  0  0  0
    3.2282   -0.7372    0.0000 H   0  0  0  0  0  0  0  0  0  0  0  0
  1  2  1  0  0  0  0
  2  3  1  0  0  0  0
  3  4  1  0  0  0  0
  4  5  2  0  0  0  0
  4  6  1  0  0  0  0
  6  7  1  0  0  0  0
  1  8  1  0  0  0  0
  1  9  1  0  0  0  0
  1 10  1  0  0  0  0
  2 11  1  0  0  0  0
  2 12  1  0  0  0  0
  6 13  1  0  0  0  0
  6 14  1  0  0  0  0
M  END
>  <id_input>
4353

>  <InChIKey>
VEUUMBGHMNQHGO-UHFFFAOYSA-N

>  <substance_name>
ethyl chloroacetate

>  <casrn>
105-39-5

>  <Molecular weight>
122.55017852783203

>  <guideline>
OECD Guideline 404 (Acute Dermal Irritation / Corrosion)

>  <species>
rabbit

>  <type_of_coverage>
semiocclusive

>  <max_duration(hrs)>
4.0

>  <vehicle>
unchanged (no vehicle)

>  <edema/ erythema score>
3.33333333333333

>  <max_score>
4.0

>  <reversibility>
0.0

>  <Outcome>
1

>  <StandardizerResult>
Remove Explicit Hydrogens (ID: RemoveExplicitH)
Clear Stereo (ID: ClearStereo)
Wedge Clean (ID: WedgeClean)
Mesomerize (ID: Mesomerize)
Tautomerize (ID: Tautomerize)
Add Explicit Hydrogens (ID: AddExplicitH)
Neutralize (ID: Neutralize)
Clean 2D (ID: Clean2D)


$$$$

  Mrv1812 02121911042D          

122121  0  0  0  0            999 V2000
    1.0702   -3.2048    0.0000 C   0  0  0  0  0  0  0  0  0  0  0  0
    1.0702   -2.3798    0.0000 C   0  0  0  0  0  0  0  0  0  0  0  0
    1.7846   -1.9673    0.0000 C   0  0  0  0  0  0  0  0  0  0  0  0
    1.7846   -1.1423    0.0000 C   0  0  0  0  0  0  0  0  0  0  0  0
    2.4991   -0.7298    0.0000 C   0  0  0  0  0  0  0  0  0  0  0  0
    2.4991    0.0952    0.0000 C   0  0  0  0  0  0  0  0  0  0  0  0
    3.2136    0.5077    0.0000 C   0  0  0  0  0  0  0  0  0  0  0  0
    3.9280    0.0952    0.0000 C   0  0  0  0  0  0  0  0  0  0  0  0
    4.6425    0.5077    0.0000 Sn  0  0  0  0  0  4  0  0  0  0  0  0
    5.0550   -0.2067    0.0000 S   0  0  0  0  0  0  0  0  0  0  0  0
    4.6425   -0.9212    0.0000 C   0  0  0  0  0  0  0  0  0  0  0  0
    5.0550   -1.6357    0.0000 C   0  0  0  0  0  0  0  0  0  0  0  0
    4.6425   -2.3501    0.0000 O   0  0  0  0  0  0  0  0  0  0  0  0
    5.8800   -1.6357    0.0000 O   0  0  0  0  0  0  0  0  0  0  0  0
    6.2925   -2.3501    0.0000 C   0  0  0  0  0  0  0  0  0  0  0  0
    7.1175   -2.3501    0.0000 C   0  0  0  0  0  0  0  0  0  0  0  0
    7.5300   -1.6357    0.0000 C   0  0  0  0  0  0  0  0  0  0  0  0
    8.3550   -1.6357    0.0000 C   0  0  0  0  0  0  0  0  0  0  0  0
    7.5300   -3.0646    0.0000 C   0  0  0  0  0  0  0  0  0  0  0  0
    8.3550   -3.0646    0.0000 C   0  0  0  0  0  0  0  0  0  0  0  0
    8.7675   -3.7791    0.0000 C   0  0  0  0  0  0  0  0  0  0  0  0
    9.5925   -3.7791    0.0000 C   0  0  0  0  0  0  0  0  0  0  0  0
    4.2300    1.2222    0.0000 S   0  0  0  0  0  0  0  0  0  0  0  0
    4.6425    1.9367    0.0000 C   0  0  0  0  0  0  0  0  0  0  0  0
    4.2300    2.6512    0.0000 C   0  0  0  0  0  0  0  0  0  0  0  0
    4.6425    3.3656    0.0000 O   0  0  0  0  0  0  0  0  0  0  0  0
    3.4050    2.6512    0.0000 O   0  0  0  0  0  0  0  0  0  0  0  0
    2.9925    3.3656    0.0000 C   0  0  0  0  0  0  0  0  0  0  0  0
    2.1675    3.3656    0.0000 C   0  0  0  0  0  0  0  0  0  0  0  0
    1.7550    2.6512    0.0000 C   0  0  0  0  0  0  0  0  0  0  0  0
    0.9300    2.6512    0.0000 C   0  0  0  0  0  0  0  0  0  0  0  0
    1.7550    4.0801    0.0000 C   0  0  0  0  0  0  0  0  0  0  0  0
    0.9300    4.0801    0.0000 C   0  0  0  0  0  0  0  0  0  0  0  0
    0.5175    4.7946    0.0000 C   0  0  0  0  0  0  0  0  0  0  0  0
   -0.3075    4.7946    0.0000 C   0  0  0  0  0  0  0  0  0  0  0  0
    5.3570    0.9202    0.0000 S   0  0  0  0  0  0  0  0  0  0  0  0
    6.0714    0.5077    0.0000 C   0  0  0  0  0  0  0  0  0  0  0  0
    6.7859    0.9202    0.0000 C   0  0  0  0  0  0  0  0  0  0  0  0
    6.7859    1.7452    0.0000 O   0  0  0  0  0  0  0  0  0  0  0  0
    7.5004    0.5077    0.0000 O   0  0  0  0  0  0  0  0  0  0  0  0
    8.2149    0.9202    0.0000 C   0  0  0  0  0  0  0  0  0  0  0  0
    8.9293    0.5077    0.0000 C   0  0  0  0  0  0  0  0  0  0  0  0
    8.9293   -0.3173    0.0000 C   0  0  0  0  0  0  0  0  0  0  0  0
    9.6438   -0.7298    0.0000 C   0  0  0  0  0  0  0  0  0  0  0  0
    9.6438    0.9202    0.0000 C   0  0  0  0  0  0  0  0  0  0  0  0
   10.3583    0.5077    0.0000 C   0  0  0  0  0  0  0  0  0  0  0  0
   11.0727    0.9202    0.0000 C   0  0  0  0  0  0  0  0  0  0  0  0
   11.7872    0.5077    0.0000 C   0  0  0  0  0  0  0  0  0  0  0  0
    0.2452   -3.2048    0.0000 H   0  0  0  0  0  0  0  0  0  0  0  0
    1.0702   -4.0298    0.0000 H   0  0  0  0  0  0  0  0  0  0  0  0
    1.8952   -3.2048    0.0000 H   0  0  0  0  0  0  0  0  0  0  0  0
    0.6168   -1.6905    0.0000 H   0  0  0  0  0  0  0  0  0  0  0  0
    0.2465   -2.3318    0.0000 H   0  0  0  0  0  0  0  0  0  0  0  0
    2.2380   -2.6565    0.0000 H   0  0  0  0  0  0  0  0  0  0  0  0
    2.6082   -2.0152    0.0000 H   0  0  0  0  0  0  0  0  0  0  0  0
    1.3313   -0.4530    0.0000 H   0  0  0  0  0  0  0  0  0  0  0  0
    0.9610   -1.0943    0.0000 H   0  0  0  0  0  0  0  0  0  0  0  0
    2.9524   -1.4190    0.0000 H   0  0  0  0  0  0  0  0  0  0  0  0
    3.3227   -0.7777    0.0000 H   0  0  0  0  0  0  0  0  0  0  0  0
    2.0457    0.7845    0.0000 H   0  0  0  0  0  0  0  0  0  0  0  0
    1.6755    0.1432    0.0000 H   0  0  0  0  0  0  0  0  0  0  0  0
    3.5838    1.2450    0.0000 H   0  0  0  0  0  0  0  0  0  0  0  0
    2.8433    1.2450    0.0000 H   0  0  0  0  0  0  0  0  0  0  0  0
    3.5578   -0.6420    0.0000 H   0  0  0  0  0  0  0  0  0  0  0  0
    4.2983   -0.6420    0.0000 H   0  0  0  0  0  0  0  0  0  0  0  0
    4.0150   -1.4567    0.0000 H   0  0  0  0  0  0  0  0  0  0  0  0
    5.4675   -0.9212    0.0000 H   0  0  0  0  0  0  0  0  0  0  0  0
    5.6032   -2.8035    0.0000 H   0  0  0  0  0  0  0  0  0  0  0  0
    6.2445   -3.1737    0.0000 H   0  0  0  0  0  0  0  0  0  0  0  0
    6.7050   -1.6357    0.0000 H   0  0  0  0  0  0  0  0  0  0  0  0
    7.8122   -0.8604    0.0000 H   0  0  0  0  0  0  0  0  0  0  0  0
    7.2478   -0.8604    0.0000 H   0  0  0  0  0  0  0  0  0  0  0  0
    8.1589   -2.4370    0.0000 H   0  0  0  0  0  0  0  0  0  0  0  0
    9.0868   -2.0166    0.0000 H   0  0  0  0  0  0  0  0  0  0  0  0
    8.8990   -1.0154    0.0000 H   0  0  0  0  0  0  0  0  0  0  0  0
    6.8407   -3.5180    0.0000 H   0  0  0  0  0  0  0  0  0  0  0  0
    7.4820   -3.8882    0.0000 H   0  0  0  0  0  0  0  0  0  0  0  0
    9.1106   -2.7333    0.0000 H   0  0  0  0  0  0  0  0  0  0  0  0
    7.9425   -3.7791    0.0000 H   0  0  0  0  0  0  0  0  0  0  0  0
    8.4853   -4.5543    0.0000 H   0  0  0  0  0  0  0  0  0  0  0  0
    9.0497   -4.5543    0.0000 H   0  0  0  0  0  0  0  0  0  0  0  0
   10.1365   -4.3993    0.0000 H   0  0  0  0  0  0  0  0  0  0  0  0
   10.3243   -3.3981    0.0000 H   0  0  0  0  0  0  0  0  0  0  0  0
    9.3964   -2.9777    0.0000 H   0  0  0  0  0  0  0  0  0  0  0  0
    5.3798    1.5664    0.0000 H   0  0  0  0  0  0  0  0  0  0  0  0
    5.3798    2.3069    0.0000 H   0  0  0  0  0  0  0  0  0  0  0  0
    3.6818    3.8190    0.0000 H   0  0  0  0  0  0  0  0  0  0  0  0
    3.0405    4.1892    0.0000 H   0  0  0  0  0  0  0  0  0  0  0  0
    2.5800    2.6512    0.0000 H   0  0  0  0  0  0  0  0  0  0  0  0
    1.4728    1.8759    0.0000 H   0  0  0  0  0  0  0  0  0  0  0  0
    2.0372    1.8759    0.0000 H   0  0  0  0  0  0  0  0  0  0  0  0
    1.1261    3.4525    0.0000 H   0  0  0  0  0  0  0  0  0  0  0  0
    0.1982    3.0321    0.0000 H   0  0  0  0  0  0  0  0  0  0  0  0
    0.3860    2.0309    0.0000 H   0  0  0  0  0  0  0  0  0  0  0  0
    2.4443    4.5334    0.0000 H   0  0  0  0  0  0  0  0  0  0  0  0
    1.8030    4.9037    0.0000 H   0  0  0  0  0  0  0  0  0  0  0  0
    0.1744    3.7488    0.0000 H   0  0  0  0  0  0  0  0  0  0  0  0
    1.3425    4.7946    0.0000 H   0  0  0  0  0  0  0  0  0  0  0  0
    0.7997    5.5698    0.0000 H   0  0  0  0  0  0  0  0  0  0  0  0
    0.2353    5.5698    0.0000 H   0  0  0  0  0  0  0  0  0  0  0  0
   -0.8515    5.4148    0.0000 H   0  0  0  0  0  0  0  0  0  0  0  0
   -1.0393    4.4136    0.0000 H   0  0  0  0  0  0  0  0  0  0  0  0
   -0.1114    3.9932    0.0000 H   0  0  0  0  0  0  0  0  0  0  0  0
    5.7012   -0.2295    0.0000 H   0  0  0  0  0  0  0  0  0  0  0  0
    6.4417   -0.2295    0.0000 H   0  0  0  0  0  0  0  0  0  0  0  0
    8.5851    1.6575    0.0000 H   0  0  0  0  0  0  0  0  0  0  0  0
    7.8446    1.6575    0.0000 H   0  0  0  0  0  0  0  0  0  0  0  0
    8.2149    0.0952    0.0000 H   0  0  0  0  0  0  0  0  0  0  0  0
    8.2061   -0.7141    0.0000 H   0  0  0  0  0  0  0  0  0  0  0  0
    9.6438    0.0952    0.0000 H   0  0  0  0  0  0  0  0  0  0  0  0
    9.5466   -1.5490    0.0000 H   0  0  0  0  0  0  0  0  0  0  0  0
   10.3236   -1.1971    0.0000 H   0  0  0  0  0  0  0  0  0  0  0  0
   10.3739   -0.3457    0.0000 H   0  0  0  0  0  0  0  0  0  0  0  0
   10.0141    1.6575    0.0000 H   0  0  0  0  0  0  0  0  0  0  0  0
    9.2735    1.6575    0.0000 H   0  0  0  0  0  0  0  0  0  0  0  0
   10.3583    1.3327    0.0000 H   0  0  0  0  0  0  0  0  0  0  0  0
   11.0765    0.1018    0.0000 H   0  0  0  0  0  0  0  0  0  0  0  0
   11.7047    1.4505    0.0000 H   0  0  0  0  0  0  0  0  0  0  0  0
   11.2160    1.7327    0.0000 H   0  0  0  0  0  0  0  0  0  0  0  0
   11.8023   -0.3171    0.0000 H   0  0  0  0  0  0  0  0  0  0  0  0
   12.5181    0.1251    0.0000 H   0  0  0  0  0  0  0  0  0  0  0  0
   12.4737    0.9653    0.0000 H   0  0  0  0  0  0  0  0  0  0  0  0
  1  2  1  0  0  0  0
  2  3  1  0  0  0  0
  3  4  1  0  0  0  0
  4  5  1  0  0  0  0
  5  6  1  0  0  0  0
  6  7  1  0  0  0  0
  7  8  1  0  0  0  0
  8  9  1  0  0  0  0
  9 10  1  0  0  0  0
 10 11  1  0  0  0  0
 11 12  1  0  0  0  0
 12 13  2  0  0  0  0
 12 14  1  0  0  0  0
 14 15  1  0  0  0  0
 15 16  1  0  0  0  0
 16 17  1  0  0  0  0
 17 18  1  0  0  0  0
 16 19  1  0  0  0  0
 19 20  1  0  0  0  0
 20 21  1  0  0  0  0
 21 22  1  0  0  0  0
  9 23  1  0  0  0  0
 23 24  1  0  0  0  0
 24 25  1  0  0  0  0
 25 26  2  0  0  0  0
 25 27  1  0  0  0  0
 27 28  1  0  0  0  0
 28 29  1  0  0  0  0
 29 30  1  0  0  0  0
 30 31  1  0  0  0  0
 29 32  1  0  0  0  0
 32 33  1  0  0  0  0
 33 34  1  0  0  0  0
 34 35  1  0  0  0  0
  9 36  1  0  0  0  0
 36 37  1  0  0  0  0
 37 38  1  0  0  0  0
 38 39  2  0  0  0  0
 38 40  1  0  0  0  0
 40 41  1  0  0  0  0
 41 42  1  0  0  0  0
 42 43  1  0  0  0  0
 43 44  1  0  0  0  0
 42 45  1  0  0  0  0
 45 46  1  0  0  0  0
 46 47  1  0  0  0  0
 47 48  1  0  0  0  0
  1 49  1  0  0  0  0
  1 50  1  0  0  0  0
  1 51  1  0  0  0  0
  2 52  1  0  0  0  0
  2 53  1  0  0  0  0
  3 54  1  0  0  0  0
  3 55  1  0  0  0  0
  4 56  1  0  0  0  0
  4 57  1  0  0  0  0
  5 58  1  0  0  0  0
  5 59  1  0  0  0  0
  6 60  1  0  0  0  0
  6 61  1  0  0  0  0
  7 62  1  0  0  0  0
  7 63  1  0  0  0  0
  8 64  1  0  0  0  0
  8 65  1  0  0  0  0
 11 66  1  0  0  0  0
 11 67  1  0  0  0  0
 15 68  1  0  0  0  0
 15 69  1  0  0  0  0
 16 70  1  0  0  0  0
 17 71  1  0  0  0  0
 17 72  1  0  0  0  0
 18 73  1  0  0  0  0
 18 74  1  0  0  0  0
 18 75  1  0  0  0  0
 19 76  1  0  0  0  0
 19 77  1  0  0  0  0
 20 78  1  0  0  0  0
 20 79  1  0  0  0  0
 21 80  1  0  0  0  0
 21 81  1  0  0  0  0
 22 82  1  0  0  0  0
 22 83  1  0  0  0  0
 22 84  1  0  0  0  0
 24 85  1  0  0  0  0
 24 86  1  0  0  0  0
 28 87  1  0  0  0  0
 28 88  1  0  0  0  0
 29 89  1  0  0  0  0
 30 90  1  0  0  0  0
 30 91  1  0  0  0  0
 31 92  1  0  0  0  0
 31 93  1  0  0  0  0
 31 94  1  0  0  0  0
 32 95  1  0  0  0  0
 32 96  1  0  0  0  0
 33 97  1  0  0  0  0
 33 98  1  0  0  0  0
 34 99  1  0  0  0  0
 34100  1  0  0  0  0
 35101  1  0  0  0  0
 35102  1  0  0  0  0
 35103  1  0  0  0  0
 37104  1  0  0  0  0
 37105  1  0  0  0  0
 41106  1  0  0  0  0
 41107  1  0  0  0  0
 42108  1  0  0  0  0
 43109  1  0  0  0  0
 43110  1  0  0  0  0
 44111  1  0  0  0  0
 44112  1  0  0  0  0
 44113  1  0  0  0  0
 45114  1  0  0  0  0
 45115  1  0  0  0  0
 46116  1  0  0  0  0
 46117  1  0  0  0  0
 47118  1  0  0  0  0
 47119  1  0  0  0  0
 48120  1  0  0  0  0
 48121  1  0  0  0  0
 48122  1  0  0  0  0
M  END
>  <id_input>
2470

>  <InChIKey>
VHKGIWUCVBAITR-UHFFFAOYSA-K

>  <substance_name>
2-ethylhexyl 2-{[bis({2-[(2-ethylhexyl)oxy]-2-oxoethyl}sulfanyl)(octyl)stannyl]sulfanyl}acetate

>  <casrn>
27107-89-7

>  <Molecular weight>
841.8955688476562

>  <guideline>
OECD Guideline 404 (Acute Dermal Irritation / Corrosion)

>  <species>
rabbit

>  <type_of_coverage>
occlusive

>  <max_duration(hrs)>
4.0

>  <vehicle>
unchanged (no vehicle)

>  <edema/ erythema score>
2.0

>  <max_score>
4.0

>  <reversibility>
0.0

>  <Outcome>
1

>  <StandardizerResult>
Remove Explicit Hydrogens (ID: RemoveExplicitH)
Clear Stereo (ID: ClearStereo)
Wedge Clean (ID: WedgeClean)
Mesomerize (ID: Mesomerize)
Tautomerize (ID: Tautomerize)
Add Explicit Hydrogens (ID: AddExplicitH)
Neutralize (ID: Neutralize)
Clean 2D (ID: Clean2D)


$$$$

  Mrv1812 02121911042D          

 42 43  0  0  0  0            999 V2000
    1.4545    0.0356    0.0000 C   0  0  0  0  0  0  0  0  0  0  0  0
    0.8309    0.5756    0.0000 C   0  0  0  0  0  0  0  0  0  0  0  0
    0.9868    1.3858    0.0000 C   0  0  0  0  0  0  0  0  0  0  0  0
    0.3631    1.9259    0.0000 C   0  0  0  0  0  0  0  0  0  0  0  0
   -0.4164    1.6558    0.0000 C   0  0  0  0  0  0  0  0  0  0  0  0
   -0.5723    0.8457    0.0000 C   0  0  0  0  0  0  0  0  0  0  0  0
   -1.3519    0.5756    0.0000 C   0  0  0  0  0  0  0  0  0  0  0  0
   -1.5078   -0.2345    0.0000 C   0  0  0  0  0  0  0  0  0  0  0  0
   -0.8841   -0.7746    0.0000 C   0  0  0  0  0  0  0  0  0  0  0  0
   -0.1046   -0.5045    0.0000 C   0  0  0  0  0  0  0  0  0  0  0  0
    0.5191   -1.0446    0.0000 C   0  0  0  0  0  0  0  0  0  0  0  0
    1.2986   -0.7746    0.0000 C   0  0  0  0  0  0  0  0  0  0  0  0
   -2.2873   -0.5045    0.0000 C   0  0  0  0  0  0  0  0  0  0  0  0
   -2.9110    0.0356    0.0000 C   0  0  0  0  0  0  0  0  0  0  0  0
   -2.7551    0.8457    0.0000 C   0  0  0  0  0  0  0  0  0  0  0  0
   -1.9755    1.1157    0.0000 O   0  0  0  0  0  0  0  0  0  0  0  0
    2.2723   -0.0730    0.0000 H   0  0  0  0  0  0  0  0  0  0  0  0
    2.0300    0.6267    0.0000 H   0  0  0  0  0  0  0  0  0  0  0  0
    0.0130    0.6842    0.0000 H   0  0  0  0  0  0  0  0  0  0  0  0
    0.2554   -0.0155    0.0000 H   0  0  0  0  0  0  0  0  0  0  0  0
    1.8046    1.2772    0.0000 H   0  0  0  0  0  0  0  0  0  0  0  0
    1.5622    1.9770    0.0000 H   0  0  0  0  0  0  0  0  0  0  0  0
    0.8661    2.5799    0.0000 H   0  0  0  0  0  0  0  0  0  0  0  0
    0.1389    2.7198    0.0000 H   0  0  0  0  0  0  0  0  0  0  0  0
   -0.7313    2.4184    0.0000 H   0  0  0  0  0  0  0  0  0  0  0  0
   -1.2161    1.8586    0.0000 H   0  0  0  0  0  0  0  0  0  0  0  0
   -0.5458    0.0211    0.0000 H   0  0  0  0  0  0  0  0  0  0  0  0
   -1.1960    1.3858    0.0000 H   0  0  0  0  0  0  0  0  0  0  0  0
   -1.3871   -1.4286    0.0000 H   0  0  0  0  0  0  0  0  0  0  0  0
   -0.6599   -1.5685    0.0000 H   0  0  0  0  0  0  0  0  0  0  0  0
   -0.2605   -1.3147    0.0000 H   0  0  0  0  0  0  0  0  0  0  0  0
    0.7153   -0.4130    0.0000 H   0  0  0  0  0  0  0  0  0  0  0  0
    0.5062   -1.8695    0.0000 H   0  0  0  0  0  0  0  0  0  0  0  0
    1.0394   -1.6848    0.0000 H   0  0  0  0  0  0  0  0  0  0  0  0
    1.9830   -1.2353    0.0000 H   0  0  0  0  0  0  0  0  0  0  0  0
    2.1172   -0.6717    0.0000 H   0  0  0  0  0  0  0  0  0  0  0  0
   -2.7902   -1.1585    0.0000 H   0  0  0  0  0  0  0  0  0  0  0  0
   -2.0631   -1.2985    0.0000 H   0  0  0  0  0  0  0  0  0  0  0  0
   -3.7288    0.1441    0.0000 H   0  0  0  0  0  0  0  0  0  0  0  0
   -3.4864   -0.5556    0.0000 H   0  0  0  0  0  0  0  0  0  0  0  0
   -3.0700    1.6082    0.0000 H   0  0  0  0  0  0  0  0  0  0  0  0
   -3.5548    1.0484    0.0000 H   0  0  0  0  0  0  0  0  0  0  0  0
  2  1  1  0  0  0  0
  3  2  1  0  0  0  0
  4  3  1  0  0  0  0
  5  4  1  0  0  0  0
  6  5  1  0  0  0  0
  7  6  1  0  0  0  0
  7  8  2  0  0  0  0
  9  8  1  0  0  0  0
 10  9  1  0  0  0  0
 11 10  1  0  0  0  0
 12 11  1  0  0  0  0
  8 13  1  0  0  0  0
 13 14  1  0  0  0  0
 14 15  1  0  0  0  0
 15 16  1  0  0  0  0
  1 12  1  0  0  0  0
 16  7  1  0  0  0  0
  1 17  1  0  0  0  0
  1 18  1  0  0  0  0
  2 19  1  0  0  0  0
  2 20  1  0  0  0  0
  3 21  1  0  0  0  0
  3 22  1  0  0  0  0
  4 23  1  0  0  0  0
  4 24  1  0  0  0  0
  5 25  1  0  0  0  0
  5 26  1  0  0  0  0
  6 27  1  0  0  0  0
  6 28  1  0  0  0  0
  9 29  1  0  0  0  0
  9 30  1  0  0  0  0
 10 31  1  0  0  0  0
 10 32  1  0  0  0  0
 11 33  1  0  0  0  0
 11 34  1  0  0  0  0
 12 35  1  0  0  0  0
 12 36  1  0  0  0  0
 13 37  1  0  0  0  0
 13 38  1  0  0  0  0
 14 39  1  0  0  0  0
 14 40  1  0  0  0  0
 15 41  1  0  0  0  0
 15 42  1  0  0  0  0
M  END
>  <id_input>
2652

>  <InChIKey>
VJRVVBJENDJBLJ-UHFFFAOYSA-N

>  <substance_name>
3,4,5,6,7,8,9,10,11,12,13,14-dodecahydro-2H-cyclododeca[b]pyran

>  <casrn>
32539-83-6

>  <Molecular weight>
222.36634826660156

>  <guideline>
OECD Guideline 404 (Acute Dermal Irritation / Corrosion)

>  <species>
rabbit

>  <type_of_coverage>
occlusive

>  <max_duration(hrs)>
4.0

>  <vehicle>
other: Ethanol/Diethylphthalat: 1:1

>  <edema/ erythema score>
2.8

>  <max_score>
2.8

>  <reversibility>
0.0

>  <Outcome>
1

>  <StandardizerResult>
Remove Explicit Hydrogens (ID: RemoveExplicitH)
Clear Stereo (ID: ClearStereo)
Wedge Clean (ID: WedgeClean)
Mesomerize (ID: Mesomerize)
Tautomerize (ID: Tautomerize)
Add Explicit Hydrogens (ID: AddExplicitH)
Neutralize (ID: Neutralize)
Clean 2D (ID: Clean2D)


$$$$

  Mrv1812 02121911042D          

 37 37  0  0  0  0            999 V2000
   -1.0403    2.7495    0.0000 C   0  0  0  0  0  0  0  0  0  0  0  0
   -1.0403    1.9245    0.0000 C   0  0  0  0  0  0  0  0  0  0  0  0
   -1.7548    1.5120    0.0000 C   0  0  0  0  0  0  0  0  0  0  0  0
   -1.7548    0.6870    0.0000 C   0  0  0  0  0  0  0  0  0  0  0  0
   -1.0403    0.2745    0.0000 C   0  0  0  0  0  0  0  0  0  0  0  0
   -0.3258    0.6870    0.0000 C   0  0  0  0  0  0  0  0  0  0  0  0
   -0.3258    1.5120    0.0000 C   0  0  0  0  0  0  0  0  0  0  0  0
    0.3886    1.9245    0.0000 C   0  0  0  0  0  0  0  0  0  0  0  0
    0.3886    2.7495    0.0000 O   0  0  0  0  0  0  0  0  0  0  0  0
    1.1031    1.5120    0.0000 O   0  0  0  0  0  0  0  0  0  0  0  0
    1.8176    1.9245    0.0000 C   0  0  0  0  0  0  0  0  0  0  0  0
    2.5321    1.5120    0.0000 C   0  0  0  0  0  0  0  0  0  0  0  0
    3.2465    1.9245    0.0000 C   0  0  0  0  0  0  0  0  0  0  0  0
    0.1114   -0.0126    0.0000 C   0  0  0  0  0  0  0  0  0  0  0  0
    0.4987    0.6582    0.0000 C   0  0  0  0  0  0  0  0  0  0  0  0
   -0.2153    2.7495    0.0000 H   0  0  0  0  0  0  0  0  0  0  0  0
   -1.0403    3.5745    0.0000 H   0  0  0  0  0  0  0  0  0  0  0  0
   -1.8653    2.7495    0.0000 H   0  0  0  0  0  0  0  0  0  0  0  0
   -1.7548    2.3370    0.0000 H   0  0  0  0  0  0  0  0  0  0  0  0
   -2.5300    1.7942    0.0000 H   0  0  0  0  0  0  0  0  0  0  0  0
   -2.5300    1.2298    0.0000 H   0  0  0  0  0  0  0  0  0  0  0  0
   -2.4141    0.1912    0.0000 H   0  0  0  0  0  0  0  0  0  0  0  0
   -1.9255   -0.1201    0.0000 H   0  0  0  0  0  0  0  0  0  0  0  0
   -0.9490   -0.5454    0.0000 H   0  0  0  0  0  0  0  0  0  0  0  0
   -0.4303   -0.2810    0.0000 H   0  0  0  0  0  0  0  0  0  0  0  0
    0.3886    1.0995    0.0000 H   0  0  0  0  0  0  0  0  0  0  0  0
    2.1878    2.6618    0.0000 H   0  0  0  0  0  0  0  0  0  0  0  0
    1.4473    2.6618    0.0000 H   0  0  0  0  0  0  0  0  0  0  0  0
    2.5321    0.6870    0.0000 H   0  0  0  0  0  0  0  0  0  0  0  0
    3.9610    1.5120    0.0000 H   0  0  0  0  0  0  0  0  0  0  0  0
    3.2465    2.7495    0.0000 H   0  0  0  0  0  0  0  0  0  0  0  0
   -0.0352   -0.8245    0.0000 H   0  0  0  0  0  0  0  0  0  0  0  0
    0.6759   -0.6143    0.0000 H   0  0  0  0  0  0  0  0  0  0  0  0
    0.9309    0.0820    0.0000 H   0  0  0  0  0  0  0  0  0  0  0  0
    1.2997    0.4608    0.0000 H   0  0  0  0  0  0  0  0  0  0  0  0
    1.2437    1.0126    0.0000 H   0  0  0  0  0  0  0  0  0  0  0  0
    0.8510    1.4042    0.0000 H   0  0  0  0  0  0  0  0  0  0  0  0
  1  2  1  0  0  0  0
  3  2  1  0  0  0  0
  4  3  1  0  0  0  0
  5  4  1  0  0  0  0
  6  5  1  0  0  0  0
  7  6  1  0  0  0  0
  7  8  1  0  0  0  0
  8  9  2  0  0  0  0
  8 10  1  0  0  0  0
 10 11  1  0  0  0  0
 11 12  1  0  0  0  0
 12 13  2  0  0  0  0
  6 14  1  0  0  0  0
  6 15  1  0  0  0  0
  2  7  1  0  0  0  0
  1 16  1  0  0  0  0
  1 17  1  0  0  0  0
  1 18  1  0  0  0  0
  2 19  1  0  0  0  0
  3 20  1  0  0  0  0
  3 21  1  0  0  0  0
  4 22  1  0  0  0  0
  4 23  1  0  0  0  0
  5 24  1  0  0  0  0
  5 25  1  0  0  0  0
  7 26  1  0  0  0  0
 11 27  1  0  0  0  0
 11 28  1  0  0  0  0
 12 29  1  0  0  0  0
 13 30  1  0  0  0  0
 13 31  1  0  0  0  0
 14 32  1  0  0  0  0
 14 33  1  0  0  0  0
 14 34  1  0  0  0  0
 15 35  1  0  0  0  0
 15 36  1  0  0  0  0
 15 37  1  0  0  0  0
M  END
>  <id_input>
1322

>  <InChIKey>
VLGGPCDFFINQCD-UHFFFAOYSA-N

>  <substance_name>
-

>  <casrn>
1648784-10-4

>  <Molecular weight>
210.31259155273438

>  <guideline>
OECD Guideline 404 (Acute Dermal Irritation / Corrosion)

>  <species>
rabbit

>  <type_of_coverage>
semiocclusive

>  <max_duration(hrs)>
4.0

>  <vehicle>
unchanged (no vehicle)

>  <edema/ erythema score>
2.0

>  <max_score>
4.0

>  <reversibility>
0.0

>  <Outcome>
1

>  <StandardizerResult>
Remove Explicit Hydrogens (ID: RemoveExplicitH)
Clear Stereo (ID: ClearStereo)
Wedge Clean (ID: WedgeClean)
Mesomerize (ID: Mesomerize)
Tautomerize (ID: Tautomerize)
Add Explicit Hydrogens (ID: AddExplicitH)
Neutralize (ID: Neutralize)
Clean 2D (ID: Clean2D)


$$$$

  Mrv1812 02121911042D          

 47 47  0  0  0  0            999 V2000
   -3.1515   -0.9104    0.0000 C   0  0  0  0  0  0  0  0  0  0  0  0
   -2.4371   -0.4979    0.0000 C   0  0  0  0  0  0  0  0  0  0  0  0
   -1.7226   -0.9104    0.0000 O   0  0  0  0  0  0  0  0  0  0  0  0
   -1.0081   -0.4979    0.0000 C   0  0  0  0  0  0  0  0  0  0  0  0
   -0.2937   -0.9104    0.0000 O   0  0  0  0  0  0  0  0  0  0  0  0
    0.4208   -0.4979    0.0000 C   0  0  0  0  0  0  0  0  0  0  0  0
    1.1353   -0.9104    0.0000 C   0  0  0  0  0  0  0  0  0  0  0  0
    1.1353   -1.7354    0.0000 C   0  0  0  0  0  0  0  0  0  0  0  0
    1.8498   -2.1479    0.0000 C   0  0  0  0  0  0  0  0  0  0  0  0
    2.5642   -1.7354    0.0000 C   0  0  0  0  0  0  0  0  0  0  0  0
    2.5642   -0.9104    0.0000 C   0  0  0  0  0  0  0  0  0  0  0  0
    3.2787   -0.4979    0.0000 C   0  0  0  0  0  0  0  0  0  0  0  0
    3.2787    0.3271    0.0000 C   0  0  0  0  0  0  0  0  0  0  0  0
    2.5642    0.7396    0.0000 C   0  0  0  0  0  0  0  0  0  0  0  0
    1.8498    0.3271    0.0000 C   0  0  0  0  0  0  0  0  0  0  0  0
    1.1353    0.7396    0.0000 C   0  0  0  0  0  0  0  0  0  0  0  0
    0.4208    0.3271    0.0000 C   0  0  0  0  0  0  0  0  0  0  0  0
   -3.5640   -0.1959    0.0000 H   0  0  0  0  0  0  0  0  0  0  0  0
   -3.8660   -1.3229    0.0000 H   0  0  0  0  0  0  0  0  0  0  0  0
   -2.7390   -1.6249    0.0000 H   0  0  0  0  0  0  0  0  0  0  0  0
   -2.0668    0.2393    0.0000 H   0  0  0  0  0  0  0  0  0  0  0  0
   -2.8073    0.2393    0.0000 H   0  0  0  0  0  0  0  0  0  0  0  0
   -0.6379    0.2393    0.0000 H   0  0  0  0  0  0  0  0  0  0  0  0
   -1.3784    0.2393    0.0000 H   0  0  0  0  0  0  0  0  0  0  0  0
    0.4208   -1.3229    0.0000 H   0  0  0  0  0  0  0  0  0  0  0  0
    1.9589   -0.8624    0.0000 H   0  0  0  0  0  0  0  0  0  0  0  0
    1.5886   -0.2211    0.0000 H   0  0  0  0  0  0  0  0  0  0  0  0
    0.5033   -2.2657    0.0000 H   0  0  0  0  0  0  0  0  0  0  0  0
    0.9920   -2.5479    0.0000 H   0  0  0  0  0  0  0  0  0  0  0  0
    1.9495   -2.9669    0.0000 H   0  0  0  0  0  0  0  0  0  0  0  0
    2.4634   -2.6993    0.0000 H   0  0  0  0  0  0  0  0  0  0  0  0
    3.3199   -2.0663    0.0000 H   0  0  0  0  0  0  0  0  0  0  0  0
    3.3503   -1.4849    0.0000 H   0  0  0  0  0  0  0  0  0  0  0  0
    2.3824   -0.1057    0.0000 H   0  0  0  0  0  0  0  0  0  0  0  0
    3.2787   -1.3229    0.0000 H   0  0  0  0  0  0  0  0  0  0  0  0
    4.0539   -0.7801    0.0000 H   0  0  0  0  0  0  0  0  0  0  0  0
    4.0539   -0.2157    0.0000 H   0  0  0  0  0  0  0  0  0  0  0  0
    3.9381    0.8230    0.0000 H   0  0  0  0  0  0  0  0  0  0  0  0
    3.4494    1.1342    0.0000 H   0  0  0  0  0  0  0  0  0  0  0  0
    2.4730    1.5595    0.0000 H   0  0  0  0  0  0  0  0  0  0  0  0
    1.9543    1.2951    0.0000 H   0  0  0  0  0  0  0  0  0  0  0  0
    1.8498    1.1521    0.0000 H   0  0  0  0  0  0  0  0  0  0  0  0
    1.0619    0.0822    0.0000 H   0  0  0  0  0  0  0  0  0  0  0  0
    0.9920    1.5521    0.0000 H   0  0  0  0  0  0  0  0  0  0  0  0
    0.5033    1.2699    0.0000 H   0  0  0  0  0  0  0  0  0  0  0  0
   -0.3383    0.6502    0.0000 H   0  0  0  0  0  0  0  0  0  0  0  0
   -0.3636    0.0714    0.0000 H   0  0  0  0  0  0  0  0  0  0  0  0
  1  2  1  0  0  0  0
  2  3  1  0  0  0  0
  3  4  1  0  0  0  0
  4  5  1  0  0  0  0
  5  6  1  0  0  0  0
  7  6  1  0  0  0  0
  8  7  1  0  0  0  0
  9  8  1  0  0  0  0
 10  9  1  0  0  0  0
 11 10  1  0  0  0  0
 12 11  1  0  0  0  0
 13 12  1  0  0  0  0
 14 13  1  0  0  0  0
 15 14  1  0  0  0  0
 16 15  1  0  0  0  0
 17 16  1  0  0  0  0
  6 17  1  0  0  0  0
  1 18  1  0  0  0  0
  1 19  1  0  0  0  0
  1 20  1  0  0  0  0
  2 21  1  0  0  0  0
  2 22  1  0  0  0  0
  4 23  1  0  0  0  0
  4 24  1  0  0  0  0
  6 25  1  0  0  0  0
  7 26  1  0  0  0  0
  7 27  1  0  0  0  0
  8 28  1  0  0  0  0
  8 29  1  0  0  0  0
  9 30  1  0  0  0  0
  9 31  1  0  0  0  0
 10 32  1  0  0  0  0
 10 33  1  0  0  0  0
 11 34  1  0  0  0  0
 11 35  1  0  0  0  0
 12 36  1  0  0  0  0
 12 37  1  0  0  0  0
 13 38  1  0  0  0  0
 13 39  1  0  0  0  0
 14 40  1  0  0  0  0
 14 41  1  0  0  0  0
 15 42  1  0  0  0  0
 15 43  1  0  0  0  0
 16 44  1  0  0  0  0
 16 45  1  0  0  0  0
 17 46  1  0  0  0  0
 17 47  1  0  0  0  0
M  END
>  <id_input>
154

>  <InChIKey>
VQNUNMBDOKEZHS-UHFFFAOYSA-N

>  <substance_name>
(ethoxymethoxy)cyclododecane

>  <casrn>
58567-11-6

>  <Molecular weight>
242.3975067138672

>  <guideline>
OECD Guideline 404 (Acute Dermal Irritation / Corrosion)

>  <species>
rabbit

>  <type_of_coverage>
semiocclusive

>  <max_duration(hrs)>
4.0

>  <vehicle>
unchanged (no vehicle)

>  <edema/ erythema score>
3.23333333333333

>  <max_score>
4.0

>  <reversibility>
0.0

>  <Outcome>
1

>  <StandardizerResult>
Remove Explicit Hydrogens (ID: RemoveExplicitH)
Clear Stereo (ID: ClearStereo)
Wedge Clean (ID: WedgeClean)
Mesomerize (ID: Mesomerize)
Tautomerize (ID: Tautomerize)
Add Explicit Hydrogens (ID: AddExplicitH)
Neutralize (ID: Neutralize)
Clean 2D (ID: Clean2D)


$$$$

  Mrv1812 02121911042D          

 15 15  0  0  0  0            999 V2000
    2.2024    0.1925    0.0000 Cl  0  0  0  0  0  0  0  0  0  0  0  0
    1.4879    0.6050    0.0000 C   0  0  0  0  0  0  0  0  0  0  0  0
    1.4879    1.4300    0.0000 Cl  0  0  0  0  0  0  0  0  0  0  0  0
    0.7734    0.1925    0.0000 C   0  0  0  0  0  0  0  0  0  0  0  0
    0.0590    0.6050    0.0000 C   0  0  0  0  0  0  0  0  0  0  0  0
   -0.6555    0.1925    0.0000 C   0  0  0  0  0  0  0  0  0  0  0  0
   -0.6555   -0.6325    0.0000 C   0  0  0  0  0  0  0  0  0  0  0  0
   -1.3700   -1.0450    0.0000 Cl  0  0  0  0  0  0  0  0  0  0  0  0
    0.0590   -1.0450    0.0000 C   0  0  0  0  0  0  0  0  0  0  0  0
    0.7734   -0.6325    0.0000 C   0  0  0  0  0  0  0  0  0  0  0  0
    2.2024    1.0175    0.0000 H   0  0  0  0  0  0  0  0  0  0  0  0
    0.0590    1.4300    0.0000 H   0  0  0  0  0  0  0  0  0  0  0  0
   -1.3700    0.6050    0.0000 H   0  0  0  0  0  0  0  0  0  0  0  0
    0.0590   -1.8700    0.0000 H   0  0  0  0  0  0  0  0  0  0  0  0
    1.4879   -1.0450    0.0000 H   0  0  0  0  0  0  0  0  0  0  0  0
  1  2  1  0  0  0  0
  2  3  1  0  0  0  0
  2  4  1  0  0  0  0
  5  4  4  0  0  0  0
  6  5  4  0  0  0  0
  7  6  4  0  0  0  0
  7  8  1  0  0  0  0
  9  7  4  0  0  0  0
 10  9  4  0  0  0  0
  4 10  4  0  0  0  0
  2 11  1  0  0  0  0
  5 12  1  0  0  0  0
  6 13  1  0  0  0  0
  9 14  1  0  0  0  0
 10 15  1  0  0  0  0
M  END
>  <id_input>
1918

>  <InChIKey>
VWHNJDGWDOQJRM-UHFFFAOYSA-N

>  <substance_name>
1-chloro-4-(dichloromethyl)benzene

>  <casrn>
13940-94-8

>  <Molecular weight>
195.47360229492188

>  <guideline>
OECD Guideline 404 (Acute Dermal Irritation / Corrosion)

>  <species>
rabbit

>  <type_of_coverage>
semiocclusive

>  <max_duration(hrs)>
4.0

>  <vehicle>
unchanged (no vehicle)

>  <edema/ erythema score>
2.3

>  <max_score>
4.0

>  <reversibility>
0.0

>  <Outcome>
1

>  <StandardizerResult>
Remove Explicit Hydrogens (ID: RemoveExplicitH)
Dearomatize (ID: Dearomatize)
Clear Stereo (ID: ClearStereo)
Wedge Clean (ID: WedgeClean)
Mesomerize (ID: Mesomerize)
Tautomerize (ID: Tautomerize)
Aromatize (ID: Aromatize)
Add Explicit Hydrogens (ID: AddExplicitH)
Neutralize (ID: Neutralize)
Clean 2D (ID: Clean2D)


$$$$

  Mrv1812 02121911042D          

 14 14  0  0  0  0            999 V2000
    0.8618   -0.1373    0.0000 C   0  0  0  0  0  0  0  0  0  0  0  0
    0.1473    0.2752    0.0000 C   0  0  0  0  0  0  0  0  0  0  0  0
   -0.5671   -0.1373    0.0000 C   0  0  0  0  0  0  0  0  0  0  0  0
   -0.5671   -0.9623    0.0000 C   0  0  0  0  0  0  0  0  0  0  0  0
    0.1473   -1.3748    0.0000 C   0  0  0  0  0  0  0  0  0  0  0  0
    0.8618   -0.9623    0.0000 C   0  0  0  0  0  0  0  0  0  0  0  0
    1.5763   -1.3748    0.0000 Cl  0  0  0  0  0  0  0  0  0  0  0  0
    0.1473   -2.1998    0.0000 F   0  0  0  0  0  0  0  0  0  0  0  0
   -1.2816   -1.3748    0.0000 Cl  0  0  0  0  0  0  0  0  0  0  0  0
   -1.2816    0.2752    0.0000 F   0  0  0  0  0  0  0  0  0  0  0  0
    0.1473    1.1002    0.0000 C   0  0  0  0  0  0  0  0  0  0  0  0
   -0.5671    1.5127    0.0000 O   0  0  0  0  0  0  0  0  0  0  0  0
    0.8618    1.5127    0.0000 F   0  0  0  0  0  0  0  0  0  0  0  0
    1.5763    0.2752    0.0000 H   0  0  0  0  0  0  0  0  0  0  0  0
  2  1  4  0  0  0  0
  3  2  4  0  0  0  0
  4  3  4  0  0  0  0
  5  4  4  0  0  0  0
  6  5  4  0  0  0  0
  6  7  1  0  0  0  0
  5  8  1  0  0  0  0
  4  9  1  0  0  0  0
  3 10  1  0  0  0  0
  2 11  1  0  0  0  0
 11 12  2  0  0  0  0
 11 13  1  0  0  0  0
  1  6  4  0  0  0  0
  1 14  1  0  0  0  0
M  END
>  <id_input>
2668

>  <InChIKey>
VWNMVYACOKCDLR-UHFFFAOYSA-N

>  <substance_name>
3,5-dichloro-2,4-difluorobenzoyl fluoride

>  <casrn>
101513-70-6

>  <Molecular weight>
228.9834442138672

>  <guideline>
OECD Guideline 404 (Acute Dermal Irritation / Corrosion)

>  <species>
rabbit

>  <type_of_coverage>
semiocclusive

>  <vehicle>
unchanged (no vehicle)

>  <edema/ erythema score>
4.0

>  <reversibility>
0.0

>  <Outcome>
1

>  <StandardizerResult>
Remove Explicit Hydrogens (ID: RemoveExplicitH)
Dearomatize (ID: Dearomatize)
Clear Stereo (ID: ClearStereo)
Wedge Clean (ID: WedgeClean)
Mesomerize (ID: Mesomerize)
Tautomerize (ID: Tautomerize)
Aromatize (ID: Aromatize)
Add Explicit Hydrogens (ID: AddExplicitH)
Neutralize (ID: Neutralize)
Clean 2D (ID: Clean2D)


$$$$

  Mrv1812 02121911042D          

 36 35  0  0  0  0            999 V2000
    0.0001    0.0000    0.0000 C   0  0  0  0  0  0  0  0  0  0  0  0
    0.7146    0.4125    0.0000 C   0  0  0  0  0  0  0  0  0  0  0  0
    1.4290    0.0000    0.0000 C   0  0  0  0  0  0  0  0  0  0  0  0
    2.1435    0.4125    0.0000 C   0  0  0  0  0  0  0  0  0  0  0  0
    2.8580    0.0000    0.0000 C   0  0  0  0  0  0  0  0  0  0  0  0
    3.5724    0.4125    0.0000 C   0  0  0  0  0  0  0  0  0  0  0  0
    4.2869    0.0000    0.0000 C   0  0  0  0  0  0  0  0  0  0  0  0
    5.0014    0.4125    0.0000 C   0  0  0  0  0  0  0  0  0  0  0  0
    5.7159    0.0000    0.0000 C   0  0  0  0  0  0  0  0  0  0  0  0
    6.4303    0.4125    0.0000 C   0  0  0  0  0  0  0  0  0  0  0  0
    7.1448    0.0000    0.0000 C   0  0  0  0  0  0  0  0  0  0  0  0
    7.8593    0.4125    0.0000 C   0  0  0  0  0  0  0  0  0  0  0  0
    8.5737    0.8250    0.0000 N   0  0  0  0  0  0  0  0  0  0  0  0
   -0.4124    0.7145    0.0000 H   0  0  0  0  0  0  0  0  0  0  0  0
   -0.7144   -0.4125    0.0000 H   0  0  0  0  0  0  0  0  0  0  0  0
    0.4126   -0.7145    0.0000 H   0  0  0  0  0  0  0  0  0  0  0  0
    1.0848    1.1497    0.0000 H   0  0  0  0  0  0  0  0  0  0  0  0
    0.3443    1.1497    0.0000 H   0  0  0  0  0  0  0  0  0  0  0  0
    1.0588   -0.7372    0.0000 H   0  0  0  0  0  0  0  0  0  0  0  0
    1.7993   -0.7372    0.0000 H   0  0  0  0  0  0  0  0  0  0  0  0
    2.5138    1.1497    0.0000 H   0  0  0  0  0  0  0  0  0  0  0  0
    1.7732    1.1497    0.0000 H   0  0  0  0  0  0  0  0  0  0  0  0
    2.4877   -0.7372    0.0000 H   0  0  0  0  0  0  0  0  0  0  0  0
    3.2282   -0.7372    0.0000 H   0  0  0  0  0  0  0  0  0  0  0  0
    3.9427    1.1497    0.0000 H   0  0  0  0  0  0  0  0  0  0  0  0
    3.2022    1.1497    0.0000 H   0  0  0  0  0  0  0  0  0  0  0  0
    3.9167   -0.7372    0.0000 H   0  0  0  0  0  0  0  0  0  0  0  0
    4.6572   -0.7372    0.0000 H   0  0  0  0  0  0  0  0  0  0  0  0
    5.3716    1.1497    0.0000 H   0  0  0  0  0  0  0  0  0  0  0  0
    4.6311    1.1497    0.0000 H   0  0  0  0  0  0  0  0  0  0  0  0
    5.3456   -0.7372    0.0000 H   0  0  0  0  0  0  0  0  0  0  0  0
    6.0861   -0.7372    0.0000 H   0  0  0  0  0  0  0  0  0  0  0  0
    6.8006    1.1497    0.0000 H   0  0  0  0  0  0  0  0  0  0  0  0
    6.0601    1.1497    0.0000 H   0  0  0  0  0  0  0  0  0  0  0  0
    6.7745   -0.7372    0.0000 H   0  0  0  0  0  0  0  0  0  0  0  0
    7.5151   -0.7372    0.0000 H   0  0  0  0  0  0  0  0  0  0  0  0
  1  2  1  0  0  0  0
  2  3  1  0  0  0  0
  3  4  1  0  0  0  0
  4  5  1  0  0  0  0
  5  6  1  0  0  0  0
  6  7  1  0  0  0  0
  7  8  1  0  0  0  0
  8  9  1  0  0  0  0
  9 10  1  0  0  0  0
 10 11  1  0  0  0  0
 11 12  1  0  0  0  0
 12 13  3  0  0  0  0
  1 14  1  0  0  0  0
  1 15  1  0  0  0  0
  1 16  1  0  0  0  0
  2 17  1  0  0  0  0
  2 18  1  0  0  0  0
  3 19  1  0  0  0  0
  3 20  1  0  0  0  0
  4 21  1  0  0  0  0
  4 22  1  0  0  0  0
  5 23  1  0  0  0  0
  5 24  1  0  0  0  0
  6 25  1  0  0  0  0
  6 26  1  0  0  0  0
  7 27  1  0  0  0  0
  7 28  1  0  0  0  0
  8 29  1  0  0  0  0
  8 30  1  0  0  0  0
  9 31  1  0  0  0  0
  9 32  1  0  0  0  0
 10 33  1  0  0  0  0
 10 34  1  0  0  0  0
 11 35  1  0  0  0  0
 11 36  1  0  0  0  0
M  END
>  <id_input>
4509

>  <InChIKey>
VXCUURYYWGCLIH-UHFFFAOYSA-N

>  <substance_name>
lauronitrile

>  <casrn>
2437-25-4

>  <Molecular weight>
181.31771850585938

>  <guideline>
OECD Guideline 404 (Acute Dermal Irritation / Corrosion)

>  <species>
rabbit

>  <type_of_coverage>
semiocclusive

>  <max_duration(hrs)>
4.0

>  <vehicle>
unchanged (no vehicle)

>  <edema/ erythema score>
2.89

>  <max_score>
4.0

>  <reversibility>
0.0

>  <Outcome>
1

>  <StandardizerResult>
Remove Explicit Hydrogens (ID: RemoveExplicitH)
Clear Stereo (ID: ClearStereo)
Wedge Clean (ID: WedgeClean)
Mesomerize (ID: Mesomerize)
Tautomerize (ID: Tautomerize)
Add Explicit Hydrogens (ID: AddExplicitH)
Neutralize (ID: Neutralize)
Clean 2D (ID: Clean2D)


$$$$

  Mrv1812 02121911042D          

115114  0  0  0  0            999 V2000
    6.5352    4.6100    0.0000 C   0  0  0  0  0  0  0  0  0  0  0  0
    6.9477    3.8955    0.0000 C   0  0  0  0  0  0  0  0  0  0  0  0
    6.5352    3.1811    0.0000 C   0  0  0  0  0  0  0  0  0  0  0  0
    6.9477    2.4666    0.0000 C   0  0  0  0  0  0  0  0  0  0  0  0
    6.5352    1.7521    0.0000 C   0  0  0  0  0  0  0  0  0  0  0  0
    6.9477    1.0376    0.0000 C   0  0  0  0  0  0  0  0  0  0  0  0
    6.5352    0.3232    0.0000 C   0  0  0  0  0  0  0  0  0  0  0  0
    5.7102    0.3232    0.0000 C   0  0  0  0  0  0  0  0  0  0  0  0
    5.2977   -0.3913    0.0000 Sn  0  0  0  0  0  4  0  0  0  0  0  0
    4.8852   -1.1058    0.0000 C   0  0  0  0  0  0  0  0  0  0  0  0
    4.0602   -1.1058    0.0000 C   0  0  0  0  0  0  0  0  0  0  0  0
    3.6477   -1.8202    0.0000 C   0  0  0  0  0  0  0  0  0  0  0  0
    2.8227   -1.8202    0.0000 C   0  0  0  0  0  0  0  0  0  0  0  0
    2.4102   -2.5347    0.0000 C   0  0  0  0  0  0  0  0  0  0  0  0
    1.5852   -2.5347    0.0000 C   0  0  0  0  0  0  0  0  0  0  0  0
    1.1727   -3.2492    0.0000 C   0  0  0  0  0  0  0  0  0  0  0  0
    0.3477   -3.2492    0.0000 C   0  0  0  0  0  0  0  0  0  0  0  0
    4.5832    0.0212    0.0000 S   0  0  0  0  0  0  0  0  0  0  0  0
    3.8687   -0.3913    0.0000 C   0  0  0  0  0  0  0  0  0  0  0  0
    3.1543    0.0212    0.0000 C   0  0  0  0  0  0  0  0  0  0  0  0
    3.1543    0.8462    0.0000 O   0  0  0  0  0  0  0  0  0  0  0  0
    2.4398   -0.3913    0.0000 O   0  0  0  0  0  0  0  0  0  0  0  0
    1.7253    0.0212    0.0000 C   0  0  0  0  0  0  0  0  0  0  0  0
    1.0108   -0.3913    0.0000 C   0  0  0  0  0  0  0  0  0  0  0  0
    1.0108   -1.2163    0.0000 C   0  0  0  0  0  0  0  0  0  0  0  0
    0.2964   -1.6288    0.0000 C   0  0  0  0  0  0  0  0  0  0  0  0
    0.2964    0.0212    0.0000 C   0  0  0  0  0  0  0  0  0  0  0  0
   -0.4181   -0.3913    0.0000 C   0  0  0  0  0  0  0  0  0  0  0  0
   -1.1326    0.0212    0.0000 C   0  0  0  0  0  0  0  0  0  0  0  0
   -1.8470   -0.3913    0.0000 C   0  0  0  0  0  0  0  0  0  0  0  0
    6.0121   -0.8038    0.0000 S   0  0  0  0  0  0  0  0  0  0  0  0
    6.7266   -0.3913    0.0000 C   0  0  0  0  0  0  0  0  0  0  0  0
    7.4411   -0.8038    0.0000 C   0  0  0  0  0  0  0  0  0  0  0  0
    7.4411   -1.6288    0.0000 O   0  0  0  0  0  0  0  0  0  0  0  0
    8.1555   -0.3913    0.0000 O   0  0  0  0  0  0  0  0  0  0  0  0
    8.8700   -0.8038    0.0000 C   0  0  0  0  0  0  0  0  0  0  0  0
    9.5845   -0.3913    0.0000 C   0  0  0  0  0  0  0  0  0  0  0  0
    9.5845    0.4337    0.0000 C   0  0  0  0  0  0  0  0  0  0  0  0
   10.2990    0.8462    0.0000 C   0  0  0  0  0  0  0  0  0  0  0  0
   10.2990   -0.8038    0.0000 C   0  0  0  0  0  0  0  0  0  0  0  0
   11.0134   -0.3913    0.0000 C   0  0  0  0  0  0  0  0  0  0  0  0
   11.7279   -0.8038    0.0000 C   0  0  0  0  0  0  0  0  0  0  0  0
   12.4424   -0.3913    0.0000 C   0  0  0  0  0  0  0  0  0  0  0  0
    7.2496    5.0225    0.0000 H   0  0  0  0  0  0  0  0  0  0  0  0
    6.1227    5.3245    0.0000 H   0  0  0  0  0  0  0  0  0  0  0  0
    5.8207    4.1975    0.0000 H   0  0  0  0  0  0  0  0  0  0  0  0
    7.6849    3.5253    0.0000 H   0  0  0  0  0  0  0  0  0  0  0  0
    7.6849    4.2658    0.0000 H   0  0  0  0  0  0  0  0  0  0  0  0
    5.7979    3.5513    0.0000 H   0  0  0  0  0  0  0  0  0  0  0  0
    5.7979    2.8108    0.0000 H   0  0  0  0  0  0  0  0  0  0  0  0
    7.6849    2.0963    0.0000 H   0  0  0  0  0  0  0  0  0  0  0  0
    7.6849    2.8368    0.0000 H   0  0  0  0  0  0  0  0  0  0  0  0
    5.7979    2.1224    0.0000 H   0  0  0  0  0  0  0  0  0  0  0  0
    5.7979    1.3818    0.0000 H   0  0  0  0  0  0  0  0  0  0  0  0
    7.6849    0.6674    0.0000 H   0  0  0  0  0  0  0  0  0  0  0  0
    7.6849    1.4079    0.0000 H   0  0  0  0  0  0  0  0  0  0  0  0
    7.3531    0.2155    0.0000 H   0  0  0  0  0  0  0  0  0  0  0  0
    6.1227    1.0376    0.0000 H   0  0  0  0  0  0  0  0  0  0  0  0
    5.1799    0.9552    0.0000 H   0  0  0  0  0  0  0  0  0  0  0  0
    4.8977    0.4664    0.0000 H   0  0  0  0  0  0  0  0  0  0  0  0
    4.9331   -1.9294    0.0000 H   0  0  0  0  0  0  0  0  0  0  0  0
    5.5744   -1.5591    0.0000 H   0  0  0  0  0  0  0  0  0  0  0  0
    3.2422   -0.9981    0.0000 H   0  0  0  0  0  0  0  0  0  0  0  0
    4.4727   -1.8202    0.0000 H   0  0  0  0  0  0  0  0  0  0  0  0
    3.3655   -2.5955    0.0000 H   0  0  0  0  0  0  0  0  0  0  0  0
    3.9298   -2.5955    0.0000 H   0  0  0  0  0  0  0  0  0  0  0  0
    2.3858   -1.1204    0.0000 H   0  0  0  0  0  0  0  0  0  0  0  0
    1.9978   -1.8345    0.0000 H   0  0  0  0  0  0  0  0  0  0  0  0
    1.9826   -3.2403    0.0000 H   0  0  0  0  0  0  0  0  0  0  0  0
    2.7920   -3.2660    0.0000 H   0  0  0  0  0  0  0  0  0  0  0  0
    1.0583   -1.8999    0.0000 H   0  0  0  0  0  0  0  0  0  0  0  0
    0.7732   -2.3887    0.0000 H   0  0  0  0  0  0  0  0  0  0  0  0
    0.8938   -4.0256    0.0000 H   0  0  0  0  0  0  0  0  0  0  0  0
    1.4600   -4.0225    0.0000 H   0  0  0  0  0  0  0  0  0  0  0  0
   -0.1142   -2.5656    0.0000 H   0  0  0  0  0  0  0  0  0  0  0  0
   -0.4749   -3.3126    0.0000 H   0  0  0  0  0  0  0  0  0  0  0  0
   -0.0041   -3.9954    0.0000 H   0  0  0  0  0  0  0  0  0  0  0  0
    4.6309   -0.7070    0.0000 H   0  0  0  0  0  0  0  0  0  0  0  0
    3.8687    0.4337    0.0000 H   0  0  0  0  0  0  0  0  0  0  0  0
    2.0956    0.7584    0.0000 H   0  0  0  0  0  0  0  0  0  0  0  0
    1.3550    0.7584    0.0000 H   0  0  0  0  0  0  0  0  0  0  0  0
    1.7253   -0.8038    0.0000 H   0  0  0  0  0  0  0  0  0  0  0  0
    1.7392   -1.6038    0.0000 H   0  0  0  0  0  0  0  0  0  0  0  0
    0.2964   -0.8038    0.0000 H   0  0  0  0  0  0  0  0  0  0  0  0
   -0.3627   -1.1326    0.0000 H   0  0  0  0  0  0  0  0  0  0  0  0
   -0.4965   -1.8570    0.0000 H   0  0  0  0  0  0  0  0  0  0  0  0
    0.0018   -2.3994    0.0000 H   0  0  0  0  0  0  0  0  0  0  0  0
    0.6666    0.7584    0.0000 H   0  0  0  0  0  0  0  0  0  0  0  0
   -0.0739    0.7584    0.0000 H   0  0  0  0  0  0  0  0  0  0  0  0
   -1.1167   -0.8301    0.0000 H   0  0  0  0  0  0  0  0  0  0  0  0
   -0.4181    0.4337    0.0000 H   0  0  0  0  0  0  0  0  0  0  0  0
   -1.2758    0.8337    0.0000 H   0  0  0  0  0  0  0  0  0  0  0  0
   -1.7646    0.5515    0.0000 H   0  0  0  0  0  0  0  0  0  0  0  0
   -2.5310    0.0700    0.0000 H   0  0  0  0  0  0  0  0  0  0  0  0
   -2.5821   -0.7658    0.0000 H   0  0  0  0  0  0  0  0  0  0  0  0
   -1.8758   -1.2158    0.0000 H   0  0  0  0  0  0  0  0  0  0  0  0
    5.9644   -0.0756    0.0000 H   0  0  0  0  0  0  0  0  0  0  0  0
    6.7266   -1.2163    0.0000 H   0  0  0  0  0  0  0  0  0  0  0  0
    8.4998   -1.5411    0.0000 H   0  0  0  0  0  0  0  0  0  0  0  0
    9.2403   -1.5411    0.0000 H   0  0  0  0  0  0  0  0  0  0  0  0
    8.8700    0.0212    0.0000 H   0  0  0  0  0  0  0  0  0  0  0  0
    9.4412    1.2462    0.0000 H   0  0  0  0  0  0  0  0  0  0  0  0
    8.9525    0.9640    0.0000 H   0  0  0  0  0  0  0  0  0  0  0  0
   10.5298    0.0542    0.0000 H   0  0  0  0  0  0  0  0  0  0  0  0
   11.1232    0.8822    0.0000 H   0  0  0  0  0  0  0  0  0  0  0  0
   10.4599    1.6553    0.0000 H   0  0  0  0  0  0  0  0  0  0  0  0
    9.9287   -1.5411    0.0000 H   0  0  0  0  0  0  0  0  0  0  0  0
   10.6692   -1.5411    0.0000 H   0  0  0  0  0  0  0  0  0  0  0  0
   11.5021    0.2734    0.0000 H   0  0  0  0  0  0  0  0  0  0  0  0
   11.0134   -1.2163    0.0000 H   0  0  0  0  0  0  0  0  0  0  0  0
   11.8712   -1.6163    0.0000 H   0  0  0  0  0  0  0  0  0  0  0  0
   12.3599   -1.3341    0.0000 H   0  0  0  0  0  0  0  0  0  0  0  0
   13.2236   -0.6565    0.0000 H   0  0  0  0  0  0  0  0  0  0  0  0
   12.8856    0.3045    0.0000 H   0  0  0  0  0  0  0  0  0  0  0  0
   11.8719    0.2046    0.0000 H   0  0  0  0  0  0  0  0  0  0  0  0
  1  2  1  0  0  0  0
  2  3  1  0  0  0  0
  3  4  1  0  0  0  0
  4  5  1  0  0  0  0
  5  6  1  0  0  0  0
  6  7  1  0  0  0  0
  7  8  1  0  0  0  0
  8  9  1  0  0  0  0
  9 10  1  0  0  0  0
 10 11  1  0  0  0  0
 11 12  1  0  0  0  0
 12 13  1  0  0  0  0
 13 14  1  0  0  0  0
 14 15  1  0  0  0  0
 15 16  1  0  0  0  0
 16 17  1  0  0  0  0
  9 18  1  0  0  0  0
 18 19  1  0  0  0  0
 19 20  1  0  0  0  0
 20 21  2  0  0  0  0
 20 22  1  0  0  0  0
 22 23  1  0  0  0  0
 23 24  1  0  0  0  0
 24 25  1  0  0  0  0
 25 26  1  0  0  0  0
 24 27  1  0  0  0  0
 27 28  1  0  0  0  0
 28 29  1  0  0  0  0
 29 30  1  0  0  0  0
  9 31  1  0  0  0  0
 31 32  1  0  0  0  0
 32 33  1  0  0  0  0
 33 34  2  0  0  0  0
 33 35  1  0  0  0  0
 35 36  1  0  0  0  0
 36 37  1  0  0  0  0
 37 38  1  0  0  0  0
 38 39  1  0  0  0  0
 37 40  1  0  0  0  0
 40 41  1  0  0  0  0
 41 42  1  0  0  0  0
 42 43  1  0  0  0  0
  1 44  1  0  0  0  0
  1 45  1  0  0  0  0
  1 46  1  0  0  0  0
  2 47  1  0  0  0  0
  2 48  1  0  0  0  0
  3 49  1  0  0  0  0
  3 50  1  0  0  0  0
  4 51  1  0  0  0  0
  4 52  1  0  0  0  0
  5 53  1  0  0  0  0
  5 54  1  0  0  0  0
  6 55  1  0  0  0  0
  6 56  1  0  0  0  0
  7 57  1  0  0  0  0
  7 58  1  0  0  0  0
  8 59  1  0  0  0  0
  8 60  1  0  0  0  0
 10 61  1  0  0  0  0
 10 62  1  0  0  0  0
 11 63  1  0  0  0  0
 11 64  1  0  0  0  0
 12 65  1  0  0  0  0
 12 66  1  0  0  0  0
 13 67  1  0  0  0  0
 13 68  1  0  0  0  0
 14 69  1  0  0  0  0
 14 70  1  0  0  0  0
 15 71  1  0  0  0  0
 15 72  1  0  0  0  0
 16 73  1  0  0  0  0
 16 74  1  0  0  0  0
 17 75  1  0  0  0  0
 17 76  1  0  0  0  0
 17 77  1  0  0  0  0
 19 78  1  0  0  0  0
 19 79  1  0  0  0  0
 23 80  1  0  0  0  0
 23 81  1  0  0  0  0
 24 82  1  0  0  0  0
 25 83  1  0  0  0  0
 25 84  1  0  0  0  0
 26 85  1  0  0  0  0
 26 86  1  0  0  0  0
 26 87  1  0  0  0  0
 27 88  1  0  0  0  0
 27 89  1  0  0  0  0
 28 90  1  0  0  0  0
 28 91  1  0  0  0  0
 29 92  1  0  0  0  0
 29 93  1  0  0  0  0
 30 94  1  0  0  0  0
 30 95  1  0  0  0  0
 30 96  1  0  0  0  0
 32 97  1  0  0  0  0
 32 98  1  0  0  0  0
 36 99  1  0  0  0  0
 36100  1  0  0  0  0
 37101  1  0  0  0  0
 38102  1  0  0  0  0
 38103  1  0  0  0  0
 39104  1  0  0  0  0
 39105  1  0  0  0  0
 39106  1  0  0  0  0
 40107  1  0  0  0  0
 40108  1  0  0  0  0
 41109  1  0  0  0  0
 41110  1  0  0  0  0
 42111  1  0  0  0  0
 42112  1  0  0  0  0
 43113  1  0  0  0  0
 43114  1  0  0  0  0
 43115  1  0  0  0  0
M  END
>  <id_input>
2467

>  <InChIKey>
VXGIVDFKZKMKQO-UHFFFAOYSA-L

>  <substance_name>
2-ethylhexyl 2-{[({2-[(2-ethylhexyl)oxy]-2-oxoethyl}sulfanyl)dioctylstannyl]sulfanyl}acetate

>  <casrn>
15571-58-1

>  <Molecular weight>
751.7944946289062

>  <guideline>
OECD Guideline 404 (Acute Dermal Irritation / Corrosion)

>  <species>
rabbit

>  <type_of_coverage>
not specified

>  <max_duration(hrs)>
4.0

>  <vehicle>
unchanged (no vehicle)

>  <edema/ erythema score>
1.78

>  <max_score>
4.0

>  <reversibility>
0.0

>  <Outcome>
1

>  <StandardizerResult>
Remove Explicit Hydrogens (ID: RemoveExplicitH)
Clear Stereo (ID: ClearStereo)
Wedge Clean (ID: WedgeClean)
Mesomerize (ID: Mesomerize)
Tautomerize (ID: Tautomerize)
Add Explicit Hydrogens (ID: AddExplicitH)
Neutralize (ID: Neutralize)
Clean 2D (ID: Clean2D)


$$$$

  Mrv1812 02121911042D          

 17 17  0  0  0  0            999 V2000
    2.8398    0.4951    0.0000 Cl  0  0  0  0  0  0  0  0  0  0  0  0
    2.1253    0.0826    0.0000 C   0  0  0  0  0  0  0  0  0  0  0  0
    1.4108    0.4951    0.0000 C   0  0  0  0  0  0  0  0  0  0  0  0
    1.4108    1.3201    0.0000 O   0  0  0  0  0  0  0  0  0  0  0  0
    0.6964    0.0826    0.0000 C   0  0  0  0  0  0  0  0  0  0  0  0
   -0.0181    0.4951    0.0000 C   0  0  0  0  0  0  0  0  0  0  0  0
   -0.7326    0.0826    0.0000 C   0  0  0  0  0  0  0  0  0  0  0  0
   -0.7326   -0.7424    0.0000 C   0  0  0  0  0  0  0  0  0  0  0  0
   -1.4470   -1.1549    0.0000 Cl  0  0  0  0  0  0  0  0  0  0  0  0
   -0.0181   -1.1549    0.0000 C   0  0  0  0  0  0  0  0  0  0  0  0
    0.6964   -0.7424    0.0000 C   0  0  0  0  0  0  0  0  0  0  0  0
    1.4108   -1.1549    0.0000 Cl  0  0  0  0  0  0  0  0  0  0  0  0
    1.7550   -0.6546    0.0000 H   0  0  0  0  0  0  0  0  0  0  0  0
    2.4956   -0.6546    0.0000 H   0  0  0  0  0  0  0  0  0  0  0  0
   -0.0181    1.3201    0.0000 H   0  0  0  0  0  0  0  0  0  0  0  0
   -1.4470    0.4951    0.0000 H   0  0  0  0  0  0  0  0  0  0  0  0
   -0.0181   -1.9799    0.0000 H   0  0  0  0  0  0  0  0  0  0  0  0
  1  2  1  0  0  0  0
  2  3  1  0  0  0  0
  3  4  2  0  0  0  0
  3  5  1  0  0  0  0
  6  5  4  0  0  0  0
  7  6  4  0  0  0  0
  8  7  4  0  0  0  0
  8  9  1  0  0  0  0
 10  8  4  0  0  0  0
 11 10  4  0  0  0  0
 11 12  1  0  0  0  0
  5 11  4  0  0  0  0
  2 13  1  0  0  0  0
  2 14  1  0  0  0  0
  6 15  1  0  0  0  0
  7 16  1  0  0  0  0
 10 17  1  0  0  0  0
M  END
>  <id_input>
2422

>  <InChIKey>
VYWPPRLJNVHPEU-UHFFFAOYSA-N

>  <substance_name>
2-chloro-1-(2,4-dichlorophenyl)ethanone

>  <casrn>
4252-78-2

>  <Molecular weight>
223.48370361328125

>  <guideline>
OECD Guideline 404 (Acute Dermal Irritation / Corrosion)

>  <species>
rabbit

>  <type_of_coverage>
occlusive

>  <max_duration(hrs)>
4.0

>  <vehicle>
other: Polyethylenglycol 400

>  <edema/ erythema score>
2.7

>  <max_score>
4.0

>  <reversibility>
1.0

>  <Outcome>
1

>  <StandardizerResult>
Remove Explicit Hydrogens (ID: RemoveExplicitH)
Dearomatize (ID: Dearomatize)
Clear Stereo (ID: ClearStereo)
Wedge Clean (ID: WedgeClean)
Mesomerize (ID: Mesomerize)
Tautomerize (ID: Tautomerize)
Aromatize (ID: Aromatize)
Add Explicit Hydrogens (ID: AddExplicitH)
Neutralize (ID: Neutralize)
Clean 2D (ID: Clean2D)


$$$$

  Mrv1812 02121911042D          

 61 60  0  0  0  0            999 V2000
  -11.3493   -2.9488    0.0000 C   0  0  0  0  0  0  0  0  0  0  0  0
  -10.6348   -2.5363    0.0000 C   0  0  0  0  0  0  0  0  0  0  0  0
   -9.9203   -2.9488    0.0000 O   0  0  0  0  0  0  0  0  0  0  0  0
   -9.2059   -2.5363    0.0000 C   0  0  0  0  0  0  0  0  0  0  0  0
   -8.4914   -2.9488    0.0000 C   0  0  0  0  0  0  0  0  0  0  0  0
   -7.7769   -2.5363    0.0000 C   0  0  0  0  0  0  0  0  0  0  0  0
   -7.0625   -2.9488    0.0000 C   0  0  0  0  0  0  0  0  0  0  0  0
   -6.3480   -2.5363    0.0000 C   0  0  0  0  0  0  0  0  0  0  0  0
   -5.6335   -2.9488    0.0000 C   0  0  0  0  0  0  0  0  0  0  0  0
   -4.9190   -2.5363    0.0000 C   0  0  0  0  0  0  0  0  0  0  0  0
   -4.2046   -2.9488    0.0000 C   0  0  0  0  0  0  0  0  0  0  0  0
   -3.4901   -2.5363    0.0000 C   0  0  0  0  0  0  0  0  0  0  0  0
   -2.7756   -2.9488    0.0000 C   0  0  0  0  0  0  0  0  0  0  0  0
   -2.0612   -2.5363    0.0000 C   0  0  0  0  0  0  0  0  0  0  0  0
   -1.3467   -2.9488    0.0000 C   0  0  0  0  0  0  0  0  0  0  0  0
   -0.6322   -2.5363    0.0000 C   0  0  0  0  0  0  0  0  0  0  0  0
    0.0823   -2.9488    0.0000 C   0  0  0  0  0  0  0  0  0  0  0  0
    0.7967   -2.5363    0.0000 C   0  0  0  0  0  0  0  0  0  0  0  0
    1.5112   -2.9488    0.0000 C   0  0  0  0  0  0  0  0  0  0  0  0
    2.2257   -2.5363    0.0000 C   0  0  0  0  0  0  0  0  0  0  0  0
    2.2257   -1.7113    0.0000 C   0  0  0  0  0  0  0  0  0  0  0  0
  -11.7618   -2.2344    0.0000 H   0  0  0  0  0  0  0  0  0  0  0  0
  -12.0637   -3.3613    0.0000 H   0  0  0  0  0  0  0  0  0  0  0  0
  -10.9368   -3.6633    0.0000 H   0  0  0  0  0  0  0  0  0  0  0  0
  -10.2645   -1.7991    0.0000 H   0  0  0  0  0  0  0  0  0  0  0  0
  -11.0051   -1.7991    0.0000 H   0  0  0  0  0  0  0  0  0  0  0  0
   -8.8356   -1.7991    0.0000 H   0  0  0  0  0  0  0  0  0  0  0  0
   -9.5761   -1.7991    0.0000 H   0  0  0  0  0  0  0  0  0  0  0  0
   -8.8617   -3.6861    0.0000 H   0  0  0  0  0  0  0  0  0  0  0  0
   -8.1211   -3.6861    0.0000 H   0  0  0  0  0  0  0  0  0  0  0  0
   -7.4067   -1.7991    0.0000 H   0  0  0  0  0  0  0  0  0  0  0  0
   -8.1472   -1.7991    0.0000 H   0  0  0  0  0  0  0  0  0  0  0  0
   -7.4327   -3.6861    0.0000 H   0  0  0  0  0  0  0  0  0  0  0  0
   -6.6922   -3.6861    0.0000 H   0  0  0  0  0  0  0  0  0  0  0  0
   -5.9777   -1.7991    0.0000 H   0  0  0  0  0  0  0  0  0  0  0  0
   -6.7182   -1.7991    0.0000 H   0  0  0  0  0  0  0  0  0  0  0  0
   -6.0038   -3.6861    0.0000 H   0  0  0  0  0  0  0  0  0  0  0  0
   -5.2632   -3.6861    0.0000 H   0  0  0  0  0  0  0  0  0  0  0  0
   -4.5488   -1.7991    0.0000 H   0  0  0  0  0  0  0  0  0  0  0  0
   -5.2893   -1.7991    0.0000 H   0  0  0  0  0  0  0  0  0  0  0  0
   -4.5748   -3.6861    0.0000 H   0  0  0  0  0  0  0  0  0  0  0  0
   -3.8343   -3.6861    0.0000 H   0  0  0  0  0  0  0  0  0  0  0  0
   -3.1198   -1.7991    0.0000 H   0  0  0  0  0  0  0  0  0  0  0  0
   -3.8604   -1.7991    0.0000 H   0  0  0  0  0  0  0  0  0  0  0  0
   -3.1459   -3.6861    0.0000 H   0  0  0  0  0  0  0  0  0  0  0  0
   -2.4054   -3.6861    0.0000 H   0  0  0  0  0  0  0  0  0  0  0  0
   -1.6909   -1.7991    0.0000 H   0  0  0  0  0  0  0  0  0  0  0  0
   -2.4314   -1.7991    0.0000 H   0  0  0  0  0  0  0  0  0  0  0  0
   -1.7169   -3.6861    0.0000 H   0  0  0  0  0  0  0  0  0  0  0  0
   -0.9764   -3.6861    0.0000 H   0  0  0  0  0  0  0  0  0  0  0  0
   -0.2620   -1.7991    0.0000 H   0  0  0  0  0  0  0  0  0  0  0  0
   -1.0025   -1.7991    0.0000 H   0  0  0  0  0  0  0  0  0  0  0  0
   -0.2880   -3.6861    0.0000 H   0  0  0  0  0  0  0  0  0  0  0  0
    0.4525   -3.6861    0.0000 H   0  0  0  0  0  0  0  0  0  0  0  0
    0.7967   -1.7113    0.0000 H   0  0  0  0  0  0  0  0  0  0  0  0
    1.5112   -3.7738    0.0000 H   0  0  0  0  0  0  0  0  0  0  0  0
    2.6790   -3.2256    0.0000 H   0  0  0  0  0  0  0  0  0  0  0  0
    3.0493   -2.5843    0.0000 H   0  0  0  0  0  0  0  0  0  0  0  0
    3.0507   -1.7113    0.0000 H   0  0  0  0  0  0  0  0  0  0  0  0
    2.2257   -0.8863    0.0000 H   0  0  0  0  0  0  0  0  0  0  0  0
    1.4007   -1.7113    0.0000 H   0  0  0  0  0  0  0  0  0  0  0  0
  1  2  1  0  0  0  0
  2  3  1  0  0  0  0
  3  4  1  0  0  0  0
  4  5  1  0  0  0  0
  5  6  1  0  0  0  0
  6  7  1  0  0  0  0
  7  8  1  0  0  0  0
  8  9  1  0  0  0  0
  9 10  1  0  0  0  0
 10 11  1  0  0  0  0
 11 12  1  0  0  0  0
 12 13  1  0  0  0  0
 13 14  1  0  0  0  0
 14 15  1  0  0  0  0
 15 16  1  0  0  0  0
 16 17  1  0  0  0  0
 18 17  1  4  0  0  0
 18 19  2  0  0  0  0
 19 20  1  0  0  0  0
 20 21  1  0  0  0  0
  1 22  1  0  0  0  0
  1 23  1  0  0  0  0
  1 24  1  0  0  0  0
  2 25  1  0  0  0  0
  2 26  1  0  0  0  0
  4 27  1  0  0  0  0
  4 28  1  0  0  0  0
  5 29  1  0  0  0  0
  5 30  1  0  0  0  0
  6 31  1  0  0  0  0
  6 32  1  0  0  0  0
  7 33  1  0  0  0  0
  7 34  1  0  0  0  0
  8 35  1  0  0  0  0
  8 36  1  0  0  0  0
  9 37  1  0  0  0  0
  9 38  1  0  0  0  0
 10 39  1  0  0  0  0
 10 40  1  0  0  0  0
 11 41  1  0  0  0  0
 11 42  1  0  0  0  0
 12 43  1  0  0  0  0
 12 44  1  0  0  0  0
 13 45  1  0  0  0  0
 13 46  1  0  0  0  0
 14 47  1  0  0  0  0
 14 48  1  0  0  0  0
 15 49  1  0  0  0  0
 15 50  1  0  0  0  0
 16 51  1  0  0  0  0
 16 52  1  0  0  0  0
 17 53  1  0  0  0  0
 17 54  1  0  0  0  0
 18 55  1  0  0  0  0
 19 56  1  0  0  0  0
 20 57  1  0  0  0  0
 20 58  1  0  0  0  0
 21 59  1  0  0  0  0
 21 60  1  0  0  0  0
 21 61  1  0  0  0  0
M  END
>  <id_input>
3061, 3062

>  <InChIKey>
WBCCOWHDSAVXAO-UHFFFAOYSA-N

>  <substance_name>
Alcohols, C16-18 and C18-unsatd., ethoxylated

>  <casrn>
68920-66-1

>  <Molecular weight>
296.531005859375

>  <guideline>
OECD Guideline 404 (Acute Dermal Irritation / Corrosion)

>  <species>
rabbit

>  <type_of_coverage>
semiocclusive

>  <max_duration(hrs)>
4.0

>  <vehicle>
unchanged (no vehicle)

>  <edema/ erythema score>
2.3

>  <max_score>
4.0

>  <reversibility>
0.0

>  <Outcome>
1

>  <StandardizerResult>
Remove Explicit Hydrogens (ID: RemoveExplicitH)
Clear Stereo (ID: ClearStereo)
Wedge Clean (ID: WedgeClean)
Mesomerize (ID: Mesomerize)
Tautomerize (ID: Tautomerize)
Add Explicit Hydrogens (ID: AddExplicitH)
Neutralize (ID: Neutralize)
Clean 2D (ID: Clean2D)


$$$$

  Mrv1812 02121911042D          

 55 54  0  0  0  0            999 V2000
   -1.8108    3.1132    0.0000 C   0  0  0  0  0  0  0  0  0  0  0  0
   -1.0963    2.7007    0.0000 C   0  0  0  0  0  0  0  0  0  0  0  0
   -1.0963    1.8757    0.0000 C   0  0  0  0  0  0  0  0  0  0  0  0
   -0.3818    3.1132    0.0000 C   0  0  0  0  0  0  0  0  0  0  0  0
    0.3327    2.7007    0.0000 C   0  0  0  0  0  0  0  0  0  0  0  0
    1.0471    3.1132    0.0000 C   0  0  0  0  0  0  0  0  0  0  0  0
    1.7616    2.7007    0.0000 C   0  0  0  0  0  0  0  0  0  0  0  0
    1.7616    1.8757    0.0000 C   0  0  0  0  0  0  0  0  0  0  0  0
    2.4761    3.1132    0.0000 C   0  0  0  0  0  0  0  0  0  0  0  0
    3.1905    2.7007    0.0000 C   0  0  0  0  0  0  0  0  0  0  0  0
    3.9050    3.1132    0.0000 C   0  0  0  0  0  0  0  0  0  0  0  0
    4.6195    2.7007    0.0000 C   0  0  0  0  0  0  0  0  0  0  0  0
    4.6195    1.8757    0.0000 C   0  0  0  0  0  0  0  0  0  0  0  0
    5.3340    3.1132    0.0000 C   0  0  0  0  0  0  0  0  0  0  0  0
    6.0484    2.7007    0.0000 C   0  0  0  0  0  0  0  0  0  0  0  0
    6.7629    3.1132    0.0000 C   0  0  0  0  0  0  0  0  0  0  0  0
    7.4774    2.7007    0.0000 C   0  0  0  0  0  0  0  0  0  0  0  0
    8.1918    3.1132    0.0000 C   0  0  0  0  0  0  0  0  0  0  0  0
    7.4774    1.8757    0.0000 O   0  0  0  0  0  0  0  0  0  0  0  0
   -1.3983    3.8277    0.0000 H   0  0  0  0  0  0  0  0  0  0  0  0
   -2.5252    3.5257    0.0000 H   0  0  0  0  0  0  0  0  0  0  0  0
   -2.2233    2.3987    0.0000 H   0  0  0  0  0  0  0  0  0  0  0  0
   -1.8108    2.2882    0.0000 H   0  0  0  0  0  0  0  0  0  0  0  0
   -1.6797    1.2923    0.0000 H   0  0  0  0  0  0  0  0  0  0  0  0
   -0.6838    1.1612    0.0000 H   0  0  0  0  0  0  0  0  0  0  0  0
   -0.2994    2.0892    0.0000 H   0  0  0  0  0  0  0  0  0  0  0  0
   -0.0116    3.8504    0.0000 H   0  0  0  0  0  0  0  0  0  0  0  0
   -0.7521    3.8504    0.0000 H   0  0  0  0  0  0  0  0  0  0  0  0
    0.8295    2.0420    0.0000 H   0  0  0  0  0  0  0  0  0  0  0  0
    0.3327    3.5257    0.0000 H   0  0  0  0  0  0  0  0  0  0  0  0
    1.6791    3.6435    0.0000 H   0  0  0  0  0  0  0  0  0  0  0  0
    1.1904    3.9257    0.0000 H   0  0  0  0  0  0  0  0  0  0  0  0
    1.0471    2.2882    0.0000 H   0  0  0  0  0  0  0  0  0  0  0  0
    1.3480    1.1619    0.0000 H   0  0  0  0  0  0  0  0  0  0  0  0
    2.2912    1.2432    0.0000 H   0  0  0  0  0  0  0  0  0  0  0  0
    2.5370    2.1575    0.0000 H   0  0  0  0  0  0  0  0  0  0  0  0
    3.1991    3.5105    0.0000 H   0  0  0  0  0  0  0  0  0  0  0  0
    2.5110    3.9375    0.0000 H   0  0  0  0  0  0  0  0  0  0  0  0
    3.2838    1.8810    0.0000 H   0  0  0  0  0  0  0  0  0  0  0  0
    3.9272    2.3293    0.0000 H   0  0  0  0  0  0  0  0  0  0  0  0
    4.5347    3.6462    0.0000 H   0  0  0  0  0  0  0  0  0  0  0  0
    4.0428    3.9266    0.0000 H   0  0  0  0  0  0  0  0  0  0  0  0
    5.3340    2.2882    0.0000 H   0  0  0  0  0  0  0  0  0  0  0  0
    3.8882    1.4938    0.0000 H   0  0  0  0  0  0  0  0  0  0  0  0
    4.5962    1.0510    0.0000 H   0  0  0  0  0  0  0  0  0  0  0  0
    5.3281    1.4532    0.0000 H   0  0  0  0  0  0  0  0  0  0  0  0
    6.0571    3.5102    0.0000 H   0  0  0  0  0  0  0  0  0  0  0  0
    5.3694    3.9374    0.0000 H   0  0  0  0  0  0  0  0  0  0  0  0
    6.1917    1.8882    0.0000 H   0  0  0  0  0  0  0  0  0  0  0  0
    6.6804    2.1704    0.0000 H   0  0  0  0  0  0  0  0  0  0  0  0
    7.3926    3.6462    0.0000 H   0  0  0  0  0  0  0  0  0  0  0  0
    6.9006    3.9266    0.0000 H   0  0  0  0  0  0  0  0  0  0  0  0
    8.3925    2.3130    0.0000 H   0  0  0  0  0  0  0  0  0  0  0  0
    9.0164    3.0866    0.0000 H   0  0  0  0  0  0  0  0  0  0  0  0
    8.4437    3.8988    0.0000 H   0  0  0  0  0  0  0  0  0  0  0  0
  1  2  1  0  0  0  0
  2  3  1  0  0  0  0
  2  4  1  0  0  0  0
  4  5  1  0  0  0  0
  5  6  1  0  0  0  0
  6  7  1  0  0  0  0
  7  8  1  0  0  0  0
  7  9  1  0  0  0  0
  9 10  1  0  0  0  0
 10 11  1  0  0  0  0
 11 12  1  0  0  0  0
 12 13  1  0  0  0  0
 12 14  1  0  0  0  0
 14 15  1  0  0  0  0
 15 16  1  0  0  0  0
 16 17  1  0  0  0  0
 17 18  1  0  0  0  0
 17 19  2  0  0  0  0
  1 20  1  0  0  0  0
  1 21  1  0  0  0  0
  1 22  1  0  0  0  0
  2 23  1  0  0  0  0
  3 24  1  0  0  0  0
  3 25  1  0  0  0  0
  3 26  1  0  0  0  0
  4 27  1  0  0  0  0
  4 28  1  0  0  0  0
  5 29  1  0  0  0  0
  5 30  1  0  0  0  0
  6 31  1  0  0  0  0
  6 32  1  0  0  0  0
  7 33  1  0  0  0  0
  8 34  1  0  0  0  0
  8 35  1  0  0  0  0
  8 36  1  0  0  0  0
  9 37  1  0  0  0  0
  9 38  1  0  0  0  0
 10 39  1  0  0  0  0
 10 40  1  0  0  0  0
 11 41  1  0  0  0  0
 11 42  1  0  0  0  0
 12 43  1  0  0  0  0
 13 44  1  0  0  0  0
 13 45  1  0  0  0  0
 13 46  1  0  0  0  0
 14 47  1  0  0  0  0
 14 48  1  0  0  0  0
 15 49  1  0  0  0  0
 15 50  1  0  0  0  0
 16 51  1  0  0  0  0
 16 52  1  0  0  0  0
 18 53  1  0  0  0  0
 18 54  1  0  0  0  0
 18 55  1  0  0  0  0
M  END
>  <id_input>
2988

>  <InChIKey>
WHWDWIHXSPCOKZ-UHFFFAOYSA-N

>  <substance_name>
6,10,14-trimethylpentadecan-2-one

>  <casrn>
502-69-2

>  <Molecular weight>
268.47784423828125

>  <guideline>
OECD Guideline 404 (Acute Dermal Irritation / Corrosion)

>  <species>
rabbit

>  <type_of_coverage>
semiocclusive

>  <max_duration(hrs)>
4.0

>  <vehicle>
unchanged (no vehicle)

>  <edema/ erythema score>
2.0

>  <max_score>
2.0

>  <reversibility>
0.0

>  <Outcome>
1

>  <StandardizerResult>
Remove Explicit Hydrogens (ID: RemoveExplicitH)
Clear Stereo (ID: ClearStereo)
Wedge Clean (ID: WedgeClean)
Mesomerize (ID: Mesomerize)
Tautomerize (ID: Tautomerize)
Add Explicit Hydrogens (ID: AddExplicitH)
Neutralize (ID: Neutralize)
Clean 2D (ID: Clean2D)


$$$$

  Mrv1812 02121911042D          

 43 43  0  0  0  0            999 V2000
    1.9992    3.3586    0.0000 C   0  0  0  0  0  0  0  0  0  0  0  0
    1.9992    2.5336    0.0000 C   0  0  0  0  0  0  0  0  0  0  0  0
    1.2847    2.1211    0.0000 C   0  0  0  0  0  0  0  0  0  0  0  0
    0.8722    2.8356    0.0000 C   0  0  0  0  0  0  0  0  0  0  0  0
    1.6972    1.4066    0.0000 C   0  0  0  0  0  0  0  0  0  0  0  0
    0.5703    1.7086    0.0000 C   0  0  0  0  0  0  0  0  0  0  0  0
   -0.1442    2.1211    0.0000 C   0  0  0  0  0  0  0  0  0  0  0  0
   -0.8587    1.7086    0.0000 C   0  0  0  0  0  0  0  0  0  0  0  0
   -0.8587    0.8836    0.0000 C   0  0  0  0  0  0  0  0  0  0  0  0
   -1.5731    0.4711    0.0000 O   0  0  0  0  0  0  0  0  0  0  0  0
   -0.1442    0.4711    0.0000 C   0  0  0  0  0  0  0  0  0  0  0  0
    0.5703    0.8836    0.0000 C   0  0  0  0  0  0  0  0  0  0  0  0
   -0.1442   -0.3539    0.0000 C   0  0  0  0  0  0  0  0  0  0  0  0
   -0.9692   -0.3539    0.0000 C   0  0  0  0  0  0  0  0  0  0  0  0
    0.6808   -0.3539    0.0000 C   0  0  0  0  0  0  0  0  0  0  0  0
   -0.1442   -1.1789    0.0000 C   0  0  0  0  0  0  0  0  0  0  0  0
    0.5703   -1.5914    0.0000 C   0  0  0  0  0  0  0  0  0  0  0  0
    2.8242    3.3586    0.0000 H   0  0  0  0  0  0  0  0  0  0  0  0
    1.9992    4.1836    0.0000 H   0  0  0  0  0  0  0  0  0  0  0  0
    1.1742    3.3586    0.0000 H   0  0  0  0  0  0  0  0  0  0  0  0
    2.4526    1.8443    0.0000 H   0  0  0  0  0  0  0  0  0  0  0  0
    2.8228    2.4856    0.0000 H   0  0  0  0  0  0  0  0  0  0  0  0
    0.4597    3.5500    0.0000 H   0  0  0  0  0  0  0  0  0  0  0  0
    0.0472    2.8356    0.0000 H   0  0  0  0  0  0  0  0  0  0  0  0
    0.4597    2.1211    0.0000 H   0  0  0  0  0  0  0  0  0  0  0  0
    0.8793    1.2986    0.0000 H   0  0  0  0  0  0  0  0  0  0  0  0
    1.4844    0.6096    0.0000 H   0  0  0  0  0  0  0  0  0  0  0  0
    2.3524    0.9052    0.0000 H   0  0  0  0  0  0  0  0  0  0  0  0
   -0.7987    2.6233    0.0000 H   0  0  0  0  0  0  0  0  0  0  0  0
   -1.6832    1.7356    0.0000 H   0  0  0  0  0  0  0  0  0  0  0  0
   -2.2876    0.8836    0.0000 H   0  0  0  0  0  0  0  0  0  0  0  0
    0.6659    0.0641    0.0000 H   0  0  0  0  0  0  0  0  0  0  0  0
   -0.9692    0.4711    0.0000 H   0  0  0  0  0  0  0  0  0  0  0  0
   -1.7942   -0.3539    0.0000 H   0  0  0  0  0  0  0  0  0  0  0  0
   -0.9692   -1.1789    0.0000 H   0  0  0  0  0  0  0  0  0  0  0  0
    0.3719   -1.1189    0.0000 H   0  0  0  0  0  0  0  0  0  0  0  0
    1.2745   -0.9268    0.0000 H   0  0  0  0  0  0  0  0  0  0  0  0
    1.4343   -0.0179    0.0000 H   0  0  0  0  0  0  0  0  0  0  0  0
   -0.3577   -1.9758    0.0000 H   0  0  0  0  0  0  0  0  0  0  0  0
   -0.7276   -0.5956    0.0000 H   0  0  0  0  0  0  0  0  0  0  0  0
   -0.1190   -2.0448    0.0000 H   0  0  0  0  0  0  0  0  0  0  0  0
    0.6661   -2.4108    0.0000 H   0  0  0  0  0  0  0  0  0  0  0  0
    1.3456   -1.8735    0.0000 H   0  0  0  0  0  0  0  0  0  0  0  0
  1  2  1  0  0  0  0
  2  3  1  0  0  0  0
  3  4  1  0  0  0  0
  3  5  1  0  0  0  0
  3  6  1  0  0  0  0
  7  6  4  0  0  0  0
  8  7  4  0  0  0  0
  9  8  4  0  0  0  0
  9 10  1  0  0  0  0
 11  9  4  0  0  0  0
 12 11  4  0  0  0  0
 11 13  1  0  0  0  0
 13 14  1  0  0  0  0
 13 15  1  0  0  0  0
 13 16  1  0  0  0  0
 16 17  1  0  0  0  0
  6 12  4  0  0  0  0
  1 18  1  0  0  0  0
  1 19  1  0  0  0  0
  1 20  1  0  0  0  0
  2 21  1  0  0  0  0
  2 22  1  0  0  0  0
  4 23  1  0  0  0  0
  4 24  1  0  0  0  0
  4 25  1  0  0  0  0
  5 26  1  0  0  0  0
  5 27  1  0  0  0  0
  5 28  1  0  0  0  0
  7 29  1  0  0  0  0
  8 30  1  0  0  0  0
 10 31  1  0  0  0  0
 12 32  1  0  0  0  0
 14 33  1  0  0  0  0
 14 34  1  0  0  0  0
 14 35  1  0  0  0  0
 15 36  1  0  0  0  0
 15 37  1  0  0  0  0
 15 38  1  0  0  0  0
 16 39  1  0  0  0  0
 16 40  1  0  0  0  0
 17 41  1  0  0  0  0
 17 42  1  0  0  0  0
 17 43  1  0  0  0  0
M  END
>  <id_input>
2116

>  <InChIKey>
WMVJWKURWRGJCI-UHFFFAOYSA-N

>  <substance_name>
2,4-bis(2-methylbutan-2-yl)phenol

>  <casrn>
120-95-6

>  <Molecular weight>
234.37704467773438

>  <guideline>
OECD Guideline 404 (Acute Dermal Irritation / Corrosion)

>  <species>
rabbit

>  <type_of_coverage>
semiocclusive

>  <max_duration(hrs)>
1.0

>  <vehicle>
unchanged (no vehicle)

>  <edema/ erythema score>
3.665

>  <max_score>
4.0

>  <reversibility>
0.0

>  <Outcome>
1

>  <StandardizerResult>
Remove Explicit Hydrogens (ID: RemoveExplicitH)
Dearomatize (ID: Dearomatize)
Clear Stereo (ID: ClearStereo)
Wedge Clean (ID: WedgeClean)
Mesomerize (ID: Mesomerize)
Tautomerize (ID: Tautomerize)
Aromatize (ID: Aromatize)
Add Explicit Hydrogens (ID: AddExplicitH)
Neutralize (ID: Neutralize)
Clean 2D (ID: Clean2D)


$$$$

  Mrv1812 02121911042D          

 10  9  0  0  0  0            999 V2000
    2.1030   -0.1510    0.0000 C   0  0  0  0  0  0  0  0  0  0  0  0
    1.2780   -0.1510    0.0000 S   0  0  0  0  0  0  0  0  0  0  0  0
    0.8655    0.5635    0.0000 S   0  0  0  0  0  0  0  0  0  0  0  0
    0.0405    0.5635    0.0000 C   0  0  0  0  0  0  0  0  0  0  0  0
    2.1030   -0.9760    0.0000 H   0  0  0  0  0  0  0  0  0  0  0  0
    2.9280   -0.1510    0.0000 H   0  0  0  0  0  0  0  0  0  0  0  0
    2.1030    0.6740    0.0000 H   0  0  0  0  0  0  0  0  0  0  0  0
    0.0405    1.3885    0.0000 H   0  0  0  0  0  0  0  0  0  0  0  0
   -0.7845    0.5635    0.0000 H   0  0  0  0  0  0  0  0  0  0  0  0
    0.0405   -0.2615    0.0000 H   0  0  0  0  0  0  0  0  0  0  0  0
  1  2  1  0  0  0  0
  2  3  1  0  0  0  0
  3  4  1  0  0  0  0
  1  5  1  0  0  0  0
  1  6  1  0  0  0  0
  1  7  1  0  0  0  0
  4  8  1  0  0  0  0
  4  9  1  0  0  0  0
  4 10  1  0  0  0  0
M  END
>  <id_input>
156

>  <InChIKey>
WQOXQRCZOLPYPM-UHFFFAOYSA-N

>  <substance_name>
(methyldisulfanyl)methane

>  <casrn>
624-92-0

>  <Molecular weight>
94.19903564453125

>  <guideline>
other: National Standard of the People???s Republic of China Toxicological Test Methods of Pesticides for Registration (GB 15670-1995)

>  <species>
rabbit

>  <type_of_coverage>
semiocclusive

>  <max_duration(hrs)>
4.0

>  <vehicle>
unchanged (no vehicle)

>  <edema/ erythema score>
1.9975

>  <max_score>
4.0

>  <reversibility>
0.0

>  <Outcome>
1

>  <StandardizerResult>
Remove Explicit Hydrogens (ID: RemoveExplicitH)
Clear Stereo (ID: ClearStereo)
Wedge Clean (ID: WedgeClean)
Mesomerize (ID: Mesomerize)
Tautomerize (ID: Tautomerize)
Add Explicit Hydrogens (ID: AddExplicitH)
Neutralize (ID: Neutralize)
Clean 2D (ID: Clean2D)


$$$$

  Mrv1812 02121911042D          

 65 64  0  0  0  0            999 V2000
    3.9931   -5.2797    0.0000 C   0  0  0  0  0  0  0  0  0  0  0  0
    3.5806   -4.5652    0.0000 C   0  0  0  0  0  0  0  0  0  0  0  0
    3.9931   -3.8508    0.0000 C   0  0  0  0  0  0  0  0  0  0  0  0
    3.5806   -3.1363    0.0000 C   0  0  0  0  0  0  0  0  0  0  0  0
    3.9931   -2.4218    0.0000 O   0  0  0  0  0  0  0  0  0  0  0  0
    3.5806   -1.7073    0.0000 C   0  0  0  0  0  0  0  0  0  0  0  0
    3.9931   -0.9929    0.0000 C   0  0  0  0  0  0  0  0  0  0  0  0
    3.5806   -0.2784    0.0000 O   0  0  0  0  0  0  0  0  0  0  0  0
    3.9931    0.4361    0.0000 P   0  0  0  0  0  0  0  0  0  0  0  0
    4.7075    0.0236    0.0000 O   0  0  0  0  0  0  0  0  0  0  0  0
    4.4056    1.1505    0.0000 O   0  0  0  0  0  0  0  0  0  0  0  0
    5.2306    1.1505    0.0000 C   0  0  0  0  0  0  0  0  0  0  0  0
    5.6431    0.4361    0.0000 C   0  0  0  0  0  0  0  0  0  0  0  0
    6.4681    0.4361    0.0000 O   0  0  0  0  0  0  0  0  0  0  0  0
    6.8806   -0.2784    0.0000 C   0  0  0  0  0  0  0  0  0  0  0  0
    7.7056   -0.2784    0.0000 C   0  0  0  0  0  0  0  0  0  0  0  0
    8.1181   -0.9929    0.0000 C   0  0  0  0  0  0  0  0  0  0  0  0
    8.9431   -0.9929    0.0000 C   0  0  0  0  0  0  0  0  0  0  0  0
    3.2786    0.8486    0.0000 O   0  0  0  0  0  0  0  0  0  0  0  0
    3.2786    1.6736    0.0000 C   0  0  0  0  0  0  0  0  0  0  0  0
    3.9931    2.0861    0.0000 C   0  0  0  0  0  0  0  0  0  0  0  0
    4.7075    1.6736    0.0000 O   0  0  0  0  0  0  0  0  0  0  0  0
    5.4220    2.0861    0.0000 C   0  0  0  0  0  0  0  0  0  0  0  0
    6.1365    1.6736    0.0000 C   0  0  0  0  0  0  0  0  0  0  0  0
    6.8510    2.0861    0.0000 C   0  0  0  0  0  0  0  0  0  0  0  0
    7.5654    1.6736    0.0000 C   0  0  0  0  0  0  0  0  0  0  0  0
    3.2786   -5.6922    0.0000 H   0  0  0  0  0  0  0  0  0  0  0  0
    4.4056   -5.9942    0.0000 H   0  0  0  0  0  0  0  0  0  0  0  0
    4.7075   -4.8672    0.0000 H   0  0  0  0  0  0  0  0  0  0  0  0
    2.8433   -4.1950    0.0000 H   0  0  0  0  0  0  0  0  0  0  0  0
    2.8433   -4.9355    0.0000 H   0  0  0  0  0  0  0  0  0  0  0  0
    4.7303   -4.2210    0.0000 H   0  0  0  0  0  0  0  0  0  0  0  0
    4.7303   -3.4805    0.0000 H   0  0  0  0  0  0  0  0  0  0  0  0
    2.8433   -2.7660    0.0000 H   0  0  0  0  0  0  0  0  0  0  0  0
    2.8433   -3.5065    0.0000 H   0  0  0  0  0  0  0  0  0  0  0  0
    2.8433   -1.3371    0.0000 H   0  0  0  0  0  0  0  0  0  0  0  0
    2.8433   -2.0776    0.0000 H   0  0  0  0  0  0  0  0  0  0  0  0
    4.7303   -1.3631    0.0000 H   0  0  0  0  0  0  0  0  0  0  0  0
    4.7303   -0.6226    0.0000 H   0  0  0  0  0  0  0  0  0  0  0  0
    6.0449    1.2827    0.0000 H   0  0  0  0  0  0  0  0  0  0  0  0
    4.8181    0.4361    0.0000 H   0  0  0  0  0  0  0  0  0  0  0  0
    5.3609   -0.3392    0.0000 H   0  0  0  0  0  0  0  0  0  0  0  0
    5.9252   -0.3392    0.0000 H   0  0  0  0  0  0  0  0  0  0  0  0
    6.4987   -1.0097    0.0000 H   0  0  0  0  0  0  0  0  0  0  0  0
    7.3081   -0.9840    0.0000 H   0  0  0  0  0  0  0  0  0  0  0  0
    8.3948    0.1749    0.0000 H   0  0  0  0  0  0  0  0  0  0  0  0
    7.7535    0.5452    0.0000 H   0  0  0  0  0  0  0  0  0  0  0  0
    7.8307   -1.7662    0.0000 H   0  0  0  0  0  0  0  0  0  0  0  0
    8.3969   -1.7693    0.0000 H   0  0  0  0  0  0  0  0  0  0  0  0
    9.4860   -1.6140    0.0000 H   0  0  0  0  0  0  0  0  0  0  0  0
    9.6753   -0.6127    0.0000 H   0  0  0  0  0  0  0  0  0  0  0  0
    8.7474   -0.1914    0.0000 H   0  0  0  0  0  0  0  0  0  0  0  0
    2.8253    2.3629    0.0000 H   0  0  0  0  0  0  0  0  0  0  0  0
    2.4550    1.7215    0.0000 H   0  0  0  0  0  0  0  0  0  0  0  0
    4.3633    2.8233    0.0000 H   0  0  0  0  0  0  0  0  0  0  0  0
    3.6228    2.8233    0.0000 H   0  0  0  0  0  0  0  0  0  0  0  0
    5.7923    2.8233    0.0000 H   0  0  0  0  0  0  0  0  0  0  0  0
    5.0518    2.8233    0.0000 H   0  0  0  0  0  0  0  0  0  0  0  0
    6.7989    1.1818    0.0000 H   0  0  0  0  0  0  0  0  0  0  0  0
    5.3794    1.3458    0.0000 H   0  0  0  0  0  0  0  0  0  0  0  0
    7.2212    2.8233    0.0000 H   0  0  0  0  0  0  0  0  0  0  0  0
    6.4807    2.8233    0.0000 H   0  0  0  0  0  0  0  0  0  0  0  0
    7.8068    0.8847    0.0000 H   0  0  0  0  0  0  0  0  0  0  0  0
    8.3902    1.6929    0.0000 H   0  0  0  0  0  0  0  0  0  0  0  0
    7.7696    2.4729    0.0000 H   0  0  0  0  0  0  0  0  0  0  0  0
  1  2  1  0  0  0  0
  2  3  1  0  0  0  0
  3  4  1  0  0  0  0
  4  5  1  0  0  0  0
  5  6  1  0  0  0  0
  6  7  1  0  0  0  0
  7  8  1  0  0  0  0
  8  9  1  0  0  0  0
  9 10  2  0  0  0  0
  9 11  1  0  0  0  0
 11 12  1  0  0  0  0
 12 13  1  0  0  0  0
 13 14  1  0  0  0  0
 14 15  1  0  0  0  0
 15 16  1  0  0  0  0
 16 17  1  0  0  0  0
 17 18  1  0  0  0  0
  9 19  1  0  0  0  0
 19 20  1  0  0  0  0
 20 21  1  0  0  0  0
 21 22  1  0  0  0  0
 22 23  1  0  0  0  0
 23 24  1  0  0  0  0
 24 25  1  0  0  0  0
 25 26  1  0  0  0  0
  1 27  1  0  0  0  0
  1 28  1  0  0  0  0
  1 29  1  0  0  0  0
  2 30  1  0  0  0  0
  2 31  1  0  0  0  0
  3 32  1  0  0  0  0
  3 33  1  0  0  0  0
  4 34  1  0  0  0  0
  4 35  1  0  0  0  0
  6 36  1  0  0  0  0
  6 37  1  0  0  0  0
  7 38  1  0  0  0  0
  7 39  1  0  0  0  0
 12 40  1  0  0  0  0
 12 41  1  0  0  0  0
 13 42  1  0  0  0  0
 13 43  1  0  0  0  0
 15 44  1  0  0  0  0
 15 45  1  0  0  0  0
 16 46  1  0  0  0  0
 16 47  1  0  0  0  0
 17 48  1  0  0  0  0
 17 49  1  0  0  0  0
 18 50  1  0  0  0  0
 18 51  1  0  0  0  0
 18 52  1  0  0  0  0
 20 53  1  0  0  0  0
 20 54  1  0  0  0  0
 21 55  1  0  0  0  0
 21 56  1  0  0  0  0
 23 57  1  0  0  0  0
 23 58  1  0  0  0  0
 24 59  1  0  0  0  0
 24 60  1  0  0  0  0
 25 61  1  0  0  0  0
 25 62  1  0  0  0  0
 26 63  1  0  0  0  0
 26 64  1  0  0  0  0
 26 65  1  0  0  0  0
M  END
>  <id_input>
5170

>  <InChIKey>
WTLBZVNBAKMVDP-UHFFFAOYSA-N

>  <substance_name>
tris(2-butoxyethyl) phosphate

>  <casrn>
78-51-3

>  <Molecular weight>
398.4718322753906

>  <guideline>
OECD Guideline 404 (Acute Dermal Irritation / Corrosion)

>  <species>
rabbit

>  <type_of_coverage>
semiocclusive

>  <max_duration(hrs)>
4.0

>  <vehicle>
unchanged (no vehicle)

>  <edema/ erythema score>
1.6625

>  <reversibility>
0.0

>  <Outcome>
1

>  <StandardizerResult>
Remove Explicit Hydrogens (ID: RemoveExplicitH)
Clear Stereo (ID: ClearStereo)
Wedge Clean (ID: WedgeClean)
Mesomerize (ID: Mesomerize)
Tautomerize (ID: Tautomerize)
Add Explicit Hydrogens (ID: AddExplicitH)
Neutralize (ID: Neutralize)
Clean 2D (ID: Clean2D)


$$$$

  Mrv1812 02121911042D          

 28 27  0  0  0  0            999 V2000
    0.1378    1.0558    0.0000 C   0  0  0  0  0  0  0  0  0  0  0  0
    0.8522    0.6433    0.0000 C   0  0  0  0  0  0  0  0  0  0  0  0
    0.8522   -0.1817    0.0000 C   0  0  0  0  0  0  0  0  0  0  0  0
    0.1378   -0.5942    0.0000 C   0  0  0  0  0  0  0  0  0  0  0  0
    0.1378   -1.4192    0.0000 O   0  0  0  0  0  0  0  0  0  0  0  0
    1.5667    1.0558    0.0000 C   0  0  0  0  0  0  0  0  0  0  0  0
    1.5667    1.8808    0.0000 C   0  0  0  0  0  0  0  0  0  0  0  0
    1.5667    2.7058    0.0000 C   0  0  0  0  0  0  0  0  0  0  0  0
    2.3917    1.8808    0.0000 C   0  0  0  0  0  0  0  0  0  0  0  0
    0.7417    1.8808    0.0000 C   0  0  0  0  0  0  0  0  0  0  0  0
    0.5503    1.7702    0.0000 H   0  0  0  0  0  0  0  0  0  0  0  0
   -0.5767    1.4683    0.0000 H   0  0  0  0  0  0  0  0  0  0  0  0
   -0.2747    0.3413    0.0000 H   0  0  0  0  0  0  0  0  0  0  0  0
    0.1378    0.2308    0.0000 H   0  0  0  0  0  0  0  0  0  0  0  0
    1.3056   -0.8710    0.0000 H   0  0  0  0  0  0  0  0  0  0  0  0
    1.6758   -0.2297    0.0000 H   0  0  0  0  0  0  0  0  0  0  0  0
   -0.6872   -0.5942    0.0000 H   0  0  0  0  0  0  0  0  0  0  0  0
    2.0200    0.3665    0.0000 H   0  0  0  0  0  0  0  0  0  0  0  0
    2.3903    1.0078    0.0000 H   0  0  0  0  0  0  0  0  0  0  0  0
    2.3917    2.7058    0.0000 H   0  0  0  0  0  0  0  0  0  0  0  0
    1.5667    3.5308    0.0000 H   0  0  0  0  0  0  0  0  0  0  0  0
    0.7417    2.7058    0.0000 H   0  0  0  0  0  0  0  0  0  0  0  0
    2.9744    1.2967    0.0000 H   0  0  0  0  0  0  0  0  0  0  0  0
    3.2167    1.8801    0.0000 H   0  0  0  0  0  0  0  0  0  0  0  0
    2.9753    2.4639    0.0000 H   0  0  0  0  0  0  0  0  0  0  0  0
    0.5984    1.0683    0.0000 H   0  0  0  0  0  0  0  0  0  0  0  0
    1.2720    1.2488    0.0000 H   0  0  0  0  0  0  0  0  0  0  0  0
    0.0272    2.2933    0.0000 H   0  0  0  0  0  0  0  0  0  0  0  0
  1  2  1  0  0  0  0
  2  3  1  0  0  0  0
  3  4  1  0  0  0  0
  4  5  2  0  0  0  0
  2  6  1  0  0  0  0
  6  7  1  0  0  0  0
  7  8  1  0  0  0  0
  7  9  1  0  0  0  0
  7 10  1  0  0  0  0
  1 11  1  0  0  0  0
  1 12  1  0  0  0  0
  1 13  1  0  0  0  0
  2 14  1  0  0  0  0
  3 15  1  0  0  0  0
  3 16  1  0  0  0  0
  4 17  1  0  0  0  0
  6 18  1  0  0  0  0
  6 19  1  0  0  0  0
  8 20  1  0  0  0  0
  8 21  1  0  0  0  0
  8 22  1  0  0  0  0
  9 23  1  0  0  0  0
  9 24  1  0  0  0  0
  9 25  1  0  0  0  0
 10 26  1  0  0  0  0
 10 27  1  0  0  0  0
 10 28  1  0  0  0  0
M  END
>  <id_input>
2664

>  <InChIKey>
WTPYRCJDOZVZON-UHFFFAOYSA-N

>  <substance_name>
3,5,5-trimethylhexanal

>  <casrn>
5435-64-3

>  <Molecular weight>
142.23861694335938

>  <guideline>
OECD Guideline 404 (Acute Dermal Irritation / Corrosion)

>  <species>
rabbit

>  <type_of_coverage>
semiocclusive

>  <max_duration(hrs)>
4.0

>  <vehicle>
unchanged (no vehicle)

>  <edema/ erythema score>
3.78

>  <max_score>
4.0

>  <reversibility>
0.0

>  <Outcome>
1

>  <StandardizerResult>
Remove Explicit Hydrogens (ID: RemoveExplicitH)
Clear Stereo (ID: ClearStereo)
Wedge Clean (ID: WedgeClean)
Mesomerize (ID: Mesomerize)
Tautomerize (ID: Tautomerize)
Add Explicit Hydrogens (ID: AddExplicitH)
Neutralize (ID: Neutralize)
Clean 2D (ID: Clean2D)


$$$$

  Mrv1812 02121911042D          

 21 20  0  0  0  0            999 V2000
    1.4876    2.4910    0.0000 C   0  0  0  0  0  0  0  0  0  0  0  0
    1.0751    1.7765    0.0000 C   0  0  0  0  0  0  0  0  0  0  0  0
    0.2501    1.7765    0.0000 C   0  0  0  0  0  0  0  0  0  0  0  0
    1.4876    1.0620    0.0000 C   0  0  0  0  0  0  0  0  0  0  0  0
    1.0751    0.3476    0.0000 C   0  0  0  0  0  0  0  0  0  0  0  0
    1.4876   -0.3669    0.0000 C   0  0  0  0  0  0  0  0  0  0  0  0
    0.2501    0.3476    0.0000 O   0  0  0  0  0  0  0  0  0  0  0  0
    2.2021    2.0785    0.0000 H   0  0  0  0  0  0  0  0  0  0  0  0
    1.9001    3.2054    0.0000 H   0  0  0  0  0  0  0  0  0  0  0  0
    0.7732    2.9035    0.0000 H   0  0  0  0  0  0  0  0  0  0  0  0
    0.6626    2.4910    0.0000 H   0  0  0  0  0  0  0  0  0  0  0  0
   -0.3332    2.3599    0.0000 H   0  0  0  0  0  0  0  0  0  0  0  0
   -0.4643    1.3640    0.0000 H   0  0  0  0  0  0  0  0  0  0  0  0
    0.4636    0.9796    0.0000 H   0  0  0  0  0  0  0  0  0  0  0  0
    2.2249    0.6918    0.0000 H   0  0  0  0  0  0  0  0  0  0  0  0
    2.2249    1.4323    0.0000 H   0  0  0  0  0  0  0  0  0  0  0  0
    1.9001    0.3476    0.0000 H   0  0  0  0  0  0  0  0  0  0  0  0
    0.6907   -0.5804    0.0000 H   0  0  0  0  0  0  0  0  0  0  0  0
    1.4876   -1.1919    0.0000 H   0  0  0  0  0  0  0  0  0  0  0  0
    2.2845   -0.5804    0.0000 H   0  0  0  0  0  0  0  0  0  0  0  0
   -0.4201   -0.1335    0.0000 H   0  0  0  0  0  0  0  0  0  0  0  0
  1  2  1  0  0  0  0
  2  3  1  0  0  0  0
  2  4  1  0  0  0  0
  4  5  1  0  0  0  0
  5  6  1  0  0  0  0
  5  7  1  0  0  0  0
  1  8  1  0  0  0  0
  1  9  1  0  0  0  0
  1 10  1  0  0  0  0
  2 11  1  0  0  0  0
  3 12  1  0  0  0  0
  3 13  1  0  0  0  0
  3 14  1  0  0  0  0
  4 15  1  0  0  0  0
  4 16  1  0  0  0  0
  5 17  1  0  0  0  0
  6 18  1  0  0  0  0
  6 19  1  0  0  0  0
  6 20  1  0  0  0  0
  7 21  1  0  0  0  0
M  END
>  <id_input>
2923

>  <InChIKey>
WVYWICLMDOOCFB-UHFFFAOYSA-N

>  <substance_name>
4-methylpentan-2-ol

>  <casrn>
108-11-2

>  <Molecular weight>
102.17475891113281

>  <guideline>
OECD Guideline 404 (Acute Dermal Irritation / Corrosion)

>  <species>
rabbit

>  <type_of_coverage>
semiocclusive

>  <max_duration(hrs)>
4.0

>  <vehicle>
unchanged (no vehicle)

>  <edema/ erythema score>
2.0

>  <max_score>
4.0

>  <reversibility>
0.0

>  <Outcome>
1

>  <StandardizerResult>
Remove Explicit Hydrogens (ID: RemoveExplicitH)
Clear Stereo (ID: ClearStereo)
Wedge Clean (ID: WedgeClean)
Mesomerize (ID: Mesomerize)
Tautomerize (ID: Tautomerize)
Add Explicit Hydrogens (ID: AddExplicitH)
Neutralize (ID: Neutralize)
Clean 2D (ID: Clean2D)


$$$$

  Mrv1812 02121911042D          

 26 25  0  0  0  0            999 V2000
   -0.0274    0.3649    0.0000 C   0  0  0  0  0  0  0  0  0  0  0  0
    0.6871   -0.0476    0.0000 C   0  0  0  0  0  0  0  0  0  0  0  0
    1.4015    0.3649    0.0000 C   0  0  0  0  0  0  0  0  0  0  0  0
    2.1160   -0.0476    0.0000 C   0  0  0  0  0  0  0  0  0  0  0  0
    2.8305    0.3649    0.0000 C   0  0  0  0  0  0  0  0  0  0  0  0
    3.5449   -0.0476    0.0000 C   0  0  0  0  0  0  0  0  0  0  0  0
    4.2594    0.3649    0.0000 C   0  0  0  0  0  0  0  0  0  0  0  0
    4.9739   -0.0476    0.0000 C   0  0  0  0  0  0  0  0  0  0  0  0
    5.6884    0.3649    0.0000 O   0  0  0  0  0  0  0  0  0  0  0  0
    4.9739   -0.8726    0.0000 O   0  0  0  0  0  0  0  0  0  0  0  0
    0.3851    1.0794    0.0000 H   0  0  0  0  0  0  0  0  0  0  0  0
   -0.7419    0.7774    0.0000 H   0  0  0  0  0  0  0  0  0  0  0  0
   -0.4399   -0.3496    0.0000 H   0  0  0  0  0  0  0  0  0  0  0  0
    0.3168   -0.7848    0.0000 H   0  0  0  0  0  0  0  0  0  0  0  0
    1.0573   -0.7848    0.0000 H   0  0  0  0  0  0  0  0  0  0  0  0
    1.7718    1.1021    0.0000 H   0  0  0  0  0  0  0  0  0  0  0  0
    1.0313    1.1021    0.0000 H   0  0  0  0  0  0  0  0  0  0  0  0
    1.7457   -0.7848    0.0000 H   0  0  0  0  0  0  0  0  0  0  0  0
    2.4863   -0.7848    0.0000 H   0  0  0  0  0  0  0  0  0  0  0  0
    3.2007    1.1021    0.0000 H   0  0  0  0  0  0  0  0  0  0  0  0
    2.4602    1.1021    0.0000 H   0  0  0  0  0  0  0  0  0  0  0  0
    3.1747   -0.7848    0.0000 H   0  0  0  0  0  0  0  0  0  0  0  0
    3.9152   -0.7848    0.0000 H   0  0  0  0  0  0  0  0  0  0  0  0
    4.6297    1.1021    0.0000 H   0  0  0  0  0  0  0  0  0  0  0  0
    3.8892    1.1021    0.0000 H   0  0  0  0  0  0  0  0  0  0  0  0
    6.4028   -0.0476    0.0000 H   0  0  0  0  0  0  0  0  0  0  0  0
  1  2  1  0  0  0  0
  2  3  1  0  0  0  0
  3  4  1  0  0  0  0
  4  5  1  0  0  0  0
  5  6  1  0  0  0  0
  6  7  1  0  0  0  0
  7  8  1  0  0  0  0
  8  9  1  0  0  0  0
  8 10  2  0  0  0  0
  1 11  1  0  0  0  0
  1 12  1  0  0  0  0
  1 13  1  0  0  0  0
  2 14  1  0  0  0  0
  2 15  1  0  0  0  0
  3 16  1  0  0  0  0
  3 17  1  0  0  0  0
  4 18  1  0  0  0  0
  4 19  1  0  0  0  0
  5 20  1  0  0  0  0
  5 21  1  0  0  0  0
  6 22  1  0  0  0  0
  6 23  1  0  0  0  0
  7 24  1  0  0  0  0
  7 25  1  0  0  0  0
  9 26  1  0  0  0  0
M  END
>  <id_input>
4727

>  <InChIKey>
WWZKQHOCKIZLMA-UHFFFAOYSA-N

>  <substance_name>
octanoic acid

>  <casrn>
124-07-2

>  <Molecular weight>
144.21144104003906

>  <guideline>
OECD Guideline 404 (Acute Dermal Irritation / Corrosion)

>  <species>
rabbit

>  <type_of_coverage>
semiocclusive

>  <max_duration(hrs)>
4.0

>  <vehicle>
unchanged (no vehicle)

>  <edema/ erythema score>
3.0

>  <max_score>
4.0

>  <reversibility>
1.0

>  <Outcome>
1

>  <StandardizerResult>
Remove Explicit Hydrogens (ID: RemoveExplicitH)
Clear Stereo (ID: ClearStereo)
Wedge Clean (ID: WedgeClean)
Mesomerize (ID: Mesomerize)
Tautomerize (ID: Tautomerize)
Add Explicit Hydrogens (ID: AddExplicitH)
Neutralize (ID: Neutralize)
Clean 2D (ID: Clean2D)


$$$$

  Mrv1812 02121911042D          

 12 11  0  0  0  0            999 V2000
    2.0719    0.1733    0.0000 C   0  0  0  0  0  0  0  0  0  0  0  0
    1.2469    0.1733    0.0000 C   0  0  0  0  0  0  0  0  0  0  0  0
    0.8344    0.8878    0.0000 S   0  0  0  0  0  0  0  0  0  0  0  0
    0.0094    0.8878    0.0000 C   0  0  0  0  0  0  0  0  0  0  0  0
    2.0719   -0.6517    0.0000 H   0  0  0  0  0  0  0  0  0  0  0  0
    2.8969    0.1733    0.0000 H   0  0  0  0  0  0  0  0  0  0  0  0
    2.0719    0.9983    0.0000 H   0  0  0  0  0  0  0  0  0  0  0  0
    0.5577   -0.2801    0.0000 H   0  0  0  0  0  0  0  0  0  0  0  0
    1.1990   -0.6503    0.0000 H   0  0  0  0  0  0  0  0  0  0  0  0
    0.0094    1.7128    0.0000 H   0  0  0  0  0  0  0  0  0  0  0  0
   -0.8156    0.8878    0.0000 H   0  0  0  0  0  0  0  0  0  0  0  0
    0.0094    0.0628    0.0000 H   0  0  0  0  0  0  0  0  0  0  0  0
  1  2  1  0  0  0  0
  2  3  1  0  0  0  0
  3  4  1  0  0  0  0
  1  5  1  0  0  0  0
  1  6  1  0  0  0  0
  1  7  1  0  0  0  0
  2  8  1  0  0  0  0
  2  9  1  0  0  0  0
  4 10  1  0  0  0  0
  4 11  1  0  0  0  0
  4 12  1  0  0  0  0
M  END
>  <id_input>
158

>  <InChIKey>
WXEHBUMAEPOYKP-UHFFFAOYSA-N

>  <substance_name>
(methylsulfanyl)ethane

>  <casrn>
624-89-5

>  <Molecular weight>
76.1606216430664

>  <guideline>
OECD Guideline 404 (Acute Dermal Irritation / Corrosion)

>  <species>
rabbit

>  <type_of_coverage>
semiocclusive

>  <max_duration(hrs)>
4.0

>  <vehicle>
unchanged (no vehicle)

>  <edema/ erythema score>
1.85

>  <max_score>
4.0

>  <reversibility>
0.0

>  <Outcome>
1

>  <StandardizerResult>
Remove Explicit Hydrogens (ID: RemoveExplicitH)
Clear Stereo (ID: ClearStereo)
Wedge Clean (ID: WedgeClean)
Mesomerize (ID: Mesomerize)
Tautomerize (ID: Tautomerize)
Add Explicit Hydrogens (ID: AddExplicitH)
Neutralize (ID: Neutralize)
Clean 2D (ID: Clean2D)


$$$$

  Mrv1812 02121911042D          

 29 28  0  0  0  0            999 V2000
    0.9398    1.6200    0.0000 C   0  0  0  0  0  0  0  0  0  0  0  0
    1.6542    1.2075    0.0000 C   0  0  0  0  0  0  0  0  0  0  0  0
    1.6542    0.3825    0.0000 C   0  0  0  0  0  0  0  0  0  0  0  0
    0.9398   -0.0300    0.0000 C   0  0  0  0  0  0  0  0  0  0  0  0
    0.2253   -0.4425    0.0000 C   0  0  0  0  0  0  0  0  0  0  0  0
    1.3523   -0.7445    0.0000 C   0  0  0  0  0  0  0  0  0  0  0  0
    0.5273    0.6844    0.0000 C   0  0  0  0  0  0  0  0  0  0  0  0
    2.3687    1.6200    0.0000 C   0  0  0  0  0  0  0  0  0  0  0  0
    2.3687    2.4450    0.0000 Si  0  0  0  0  0  4  0  0  0  0  0  0
    2.3687    3.2700    0.0000 Cl  0  0  0  0  0  0  0  0  0  0  0  0
    3.1937    2.4450    0.0000 Cl  0  0  0  0  0  0  0  0  0  0  0  0
    1.5437    2.4450    0.0000 Cl  0  0  0  0  0  0  0  0  0  0  0  0
    1.3523    2.3344    0.0000 H   0  0  0  0  0  0  0  0  0  0  0  0
    0.2253    2.0325    0.0000 H   0  0  0  0  0  0  0  0  0  0  0  0
    0.5273    0.9055    0.0000 H   0  0  0  0  0  0  0  0  0  0  0  0
    0.9398    0.7950    0.0000 H   0  0  0  0  0  0  0  0  0  0  0  0
    2.1076   -0.3068    0.0000 H   0  0  0  0  0  0  0  0  0  0  0  0
    2.4778    0.3345    0.0000 H   0  0  0  0  0  0  0  0  0  0  0  0
   -0.1872    0.2719    0.0000 H   0  0  0  0  0  0  0  0  0  0  0  0
   -0.4892   -0.8550    0.0000 H   0  0  0  0  0  0  0  0  0  0  0  0
    0.6378   -1.1570    0.0000 H   0  0  0  0  0  0  0  0  0  0  0  0
    1.1390   -1.5415    0.0000 H   0  0  0  0  0  0  0  0  0  0  0  0
    1.7653   -1.4587    0.0000 H   0  0  0  0  0  0  0  0  0  0  0  0
    2.1494   -0.9571    0.0000 H   0  0  0  0  0  0  0  0  0  0  0  0
   -0.0030    1.3164    0.0000 H   0  0  0  0  0  0  0  0  0  0  0  0
   -0.2852    0.8277    0.0000 H   0  0  0  0  0  0  0  0  0  0  0  0
    0.3137   -0.1125    0.0000 H   0  0  0  0  0  0  0  0  0  0  0  0
    2.8220    0.9307    0.0000 H   0  0  0  0  0  0  0  0  0  0  0  0
    3.1923    1.5720    0.0000 H   0  0  0  0  0  0  0  0  0  0  0  0
  1  2  1  0  0  0  0
  2  3  1  0  0  0  0
  3  4  1  0  0  0  0
  4  5  1  0  0  0  0
  4  6  1  0  0  0  0
  4  7  1  0  0  0  0
  2  8  1  0  0  0  0
  8  9  1  0  0  0  0
  9 10  1  0  0  0  0
  9 11  1  0  0  0  0
  9 12  1  0  0  0  0
  1 13  1  0  0  0  0
  1 14  1  0  0  0  0
  1 15  1  0  0  0  0
  2 16  1  0  0  0  0
  3 17  1  0  0  0  0
  3 18  1  0  0  0  0
  5 19  1  0  0  0  0
  5 20  1  0  0  0  0
  5 21  1  0  0  0  0
  6 22  1  0  0  0  0
  6 23  1  0  0  0  0
  6 24  1  0  0  0  0
  7 25  1  0  0  0  0
  7 26  1  0  0  0  0
  7 27  1  0  0  0  0
  8 28  1  0  0  0  0
  8 29  1  0  0  0  0
M  END
>  <id_input>
5107

>  <InChIKey>
XEPLIPFTDXHUHB-UHFFFAOYSA-N

>  <substance_name>
trichloro(2,4,4-trimethylpentyl)silane

>  <casrn>
18379-25-4

>  <Molecular weight>
247.6650848388672

>  <guideline>
OECD Guideline 404 (Acute Dermal Irritation / Corrosion)

>  <species>
rabbit

>  <type_of_coverage>
semiocclusive

>  <max_duration(hrs)>
24.0

>  <vehicle>
unchanged (no vehicle)

>  <edema/ erythema score>
4.0

>  <max_score>
4.0

>  <reversibility>
0.0

>  <Outcome>
1

>  <StandardizerResult>
Remove Explicit Hydrogens (ID: RemoveExplicitH)
Clear Stereo (ID: ClearStereo)
Wedge Clean (ID: WedgeClean)
Mesomerize (ID: Mesomerize)
Tautomerize (ID: Tautomerize)
Add Explicit Hydrogens (ID: AddExplicitH)
Neutralize (ID: Neutralize)
Clean 2D (ID: Clean2D)


$$$$

  Mrv1812 02121911042D          

 34 33  0  0  0  0            999 V2000
    0.2000   -0.4795    0.0000 C   0  0  0  0  0  0  0  0  0  0  0  0
    0.9145   -0.8920    0.0000 O   0  0  0  0  0  0  0  0  0  0  0  0
    1.6289   -0.4795    0.0000 Si  0  0  0  0  0  4  0  0  0  0  0  0
    2.3434   -0.0670    0.0000 C   0  0  0  0  0  0  0  0  0  0  0  0
    3.0579   -0.4795    0.0000 C   0  0  0  0  0  0  0  0  0  0  0  0
    3.7723   -0.0670    0.0000 C   0  0  0  0  0  0  0  0  0  0  0  0
    3.0579   -1.3045    0.0000 C   0  0  0  0  0  0  0  0  0  0  0  0
    2.0414   -1.1940    0.0000 O   0  0  0  0  0  0  0  0  0  0  0  0
    1.6289   -1.9084    0.0000 C   0  0  0  0  0  0  0  0  0  0  0  0
    1.2164    0.2350    0.0000 C   0  0  0  0  0  0  0  0  0  0  0  0
    1.6289    0.9495    0.0000 C   0  0  0  0  0  0  0  0  0  0  0  0
    0.3914    0.2350    0.0000 C   0  0  0  0  0  0  0  0  0  0  0  0
   -0.4203    0.0645    0.0000 H   0  0  0  0  0  0  0  0  0  0  0  0
   -0.5622   -0.7952    0.0000 H   0  0  0  0  0  0  0  0  0  0  0  0
    0.1460   -1.3027    0.0000 H   0  0  0  0  0  0  0  0  0  0  0  0
    2.7137    0.6703    0.0000 H   0  0  0  0  0  0  0  0  0  0  0  0
    1.9731    0.6703    0.0000 H   0  0  0  0  0  0  0  0  0  0  0  0
    3.0579    0.3455    0.0000 H   0  0  0  0  0  0  0  0  0  0  0  0
    3.9859   -0.8639    0.0000 H   0  0  0  0  0  0  0  0  0  0  0  0
    4.5973   -0.0670    0.0000 H   0  0  0  0  0  0  0  0  0  0  0  0
    3.9859    0.7299    0.0000 H   0  0  0  0  0  0  0  0  0  0  0  0
    2.2329   -1.3045    0.0000 H   0  0  0  0  0  0  0  0  0  0  0  0
    3.0579   -2.1295    0.0000 H   0  0  0  0  0  0  0  0  0  0  0  0
    3.8829   -1.3045    0.0000 H   0  0  0  0  0  0  0  0  0  0  0  0
    0.9430   -1.4501    0.0000 H   0  0  0  0  0  0  0  0  0  0  0  0
    1.1267   -2.5629    0.0000 H   0  0  0  0  0  0  0  0  0  0  0  0
    2.2492   -2.4524    0.0000 H   0  0  0  0  0  0  0  0  0  0  0  0
    0.8039   -0.4795    0.0000 H   0  0  0  0  0  0  0  0  0  0  0  0
    2.3382    1.3708    0.0000 H   0  0  0  0  0  0  0  0  0  0  0  0
    1.4789    1.7607    0.0000 H   0  0  0  0  0  0  0  0  0  0  0  0
    0.8159    1.0893    0.0000 H   0  0  0  0  0  0  0  0  0  0  0  0
    0.3102    1.0560    0.0000 H   0  0  0  0  0  0  0  0  0  0  0  0
   -0.1133    0.8875    0.0000 H   0  0  0  0  0  0  0  0  0  0  0  0
   -0.3828    0.5199    0.0000 H   0  0  0  0  0  0  0  0  0  0  0  0
  1  2  1  0  0  0  0
  2  3  1  0  0  0  0
  3  4  1  0  0  0  0
  4  5  1  0  0  0  0
  5  6  1  0  0  0  0
  5  7  1  0  0  0  0
  3  8  1  0  0  0  0
  8  9  1  0  0  0  0
  3 10  1  0  0  0  0
 10 11  1  0  0  0  0
 10 12  1  0  0  0  0
  1 13  1  0  0  0  0
  1 14  1  0  0  0  0
  1 15  1  0  0  0  0
  4 16  1  0  0  0  0
  4 17  1  0  0  0  0
  5 18  1  0  0  0  0
  6 19  1  0  0  0  0
  6 20  1  0  0  0  0
  6 21  1  0  0  0  0
  7 22  1  0  0  0  0
  7 23  1  0  0  0  0
  7 24  1  0  0  0  0
  9 25  1  0  0  0  0
  9 26  1  0  0  0  0
  9 27  1  0  0  0  0
 10 28  1  0  0  0  0
 11 29  1  0  0  0  0
 11 30  1  0  0  0  0
 11 31  1  0  0  0  0
 12 32  1  0  0  0  0
 12 33  1  0  0  0  0
 12 34  1  0  0  0  0
M  END
>  <id_input>
4171

>  <InChIKey>
XFAOZKNGVLIXLC-UHFFFAOYSA-N

>  <substance_name>
dimethoxy(2-methylpropyl)propan-2-ylsilane

>  <casrn>
111439-76-0

>  <Molecular weight>
190.35528564453125

>  <guideline>
OECD Guideline 404 (Acute Dermal Irritation / Corrosion)

>  <species>
rabbit

>  <type_of_coverage>
not specified

>  <max_duration(hrs)>
4.0

>  <vehicle>
not specified

>  <edema/ erythema score>
2.0

>  <max_score>
2.0

>  <reversibility>
0.0

>  <Outcome>
1

>  <StandardizerResult>
Remove Explicit Hydrogens (ID: RemoveExplicitH)
Clear Stereo (ID: ClearStereo)
Wedge Clean (ID: WedgeClean)
Mesomerize (ID: Mesomerize)
Tautomerize (ID: Tautomerize)
Add Explicit Hydrogens (ID: AddExplicitH)
Neutralize (ID: Neutralize)
Clean 2D (ID: Clean2D)


$$$$

  Mrv1812 02121911042D          

 13 12  0  0  0  0            999 V2000
    2.3917   -1.1904    0.0000 C   0  0  0  0  0  0  0  0  0  0  0  0
    1.5667   -1.1904    0.0000 O   0  0  0  0  0  0  0  0  0  0  0  0
    1.1542   -0.4760    0.0000 P   0  0  0  0  0  0  0  0  0  0  0  0
    1.8687   -0.0635    0.0000 Cl  0  0  0  0  0  0  0  0  0  0  0  0
    0.4397   -0.8885    0.0000 S   0  0  0  0  0  0  0  0  0  0  0  0
    0.7417    0.2385    0.0000 O   0  0  0  0  0  0  0  0  0  0  0  0
   -0.0833    0.2385    0.0000 C   0  0  0  0  0  0  0  0  0  0  0  0
    2.3917   -2.0154    0.0000 H   0  0  0  0  0  0  0  0  0  0  0  0
    3.2167   -1.1904    0.0000 H   0  0  0  0  0  0  0  0  0  0  0  0
    2.3917   -0.3654    0.0000 H   0  0  0  0  0  0  0  0  0  0  0  0
   -0.0833    1.0635    0.0000 H   0  0  0  0  0  0  0  0  0  0  0  0
   -0.9083    0.2385    0.0000 H   0  0  0  0  0  0  0  0  0  0  0  0
   -0.0833   -0.5865    0.0000 H   0  0  0  0  0  0  0  0  0  0  0  0
  1  2  1  0  0  0  0
  2  3  1  0  0  0  0
  3  4  1  0  0  0  0
  3  5  2  0  0  0  0
  3  6  1  0  0  0  0
  6  7  1  0  0  0  0
  1  8  1  0  0  0  0
  1  9  1  0  0  0  0
  1 10  1  0  0  0  0
  7 11  1  0  0  0  0
  7 12  1  0  0  0  0
  7 13  1  0  0  0  0
M  END
>  <id_input>
3519

>  <InChIKey>
XFBJRFNXPUCPKU-UHFFFAOYSA-N

>  <substance_name>
O,O-dimethyl chlorothiophosphate

>  <casrn>
2524-03-0

>  <Molecular weight>
160.55960083007812

>  <guideline>
OECD Guideline 404 (Acute Dermal Irritation / Corrosion)

>  <species>
rabbit

>  <type_of_coverage>
occlusive

>  <max_duration(hrs)>
4.0

>  <vehicle>
unchanged (no vehicle)

>  <edema/ erythema score>
3.37666666666666

>  <max_score>
3.0

>  <reversibility>
0.0

>  <Outcome>
1

>  <StandardizerResult>
Remove Explicit Hydrogens (ID: RemoveExplicitH)
Clear Stereo (ID: ClearStereo)
Wedge Clean (ID: WedgeClean)
Mesomerize (ID: Mesomerize)
Tautomerize (ID: Tautomerize)
Add Explicit Hydrogens (ID: AddExplicitH)
Neutralize (ID: Neutralize)
Clean 2D (ID: Clean2D)


$$$$

  Mrv1812 02121911042D          

 74 73  0  0  0  0            999 V2000
   -0.1958    0.0193    0.0000 C   0  0  0  0  0  0  0  0  0  0  0  0
    0.5187   -0.3932    0.0000 C   0  0  0  0  0  0  0  0  0  0  0  0
    1.2332    0.0193    0.0000 C   0  0  0  0  0  0  0  0  0  0  0  0
    1.9477   -0.3932    0.0000 C   0  0  0  0  0  0  0  0  0  0  0  0
    2.6621    0.0193    0.0000 C   0  0  0  0  0  0  0  0  0  0  0  0
    3.3766   -0.3932    0.0000 C   0  0  0  0  0  0  0  0  0  0  0  0
    4.0911    0.0193    0.0000 C   0  0  0  0  0  0  0  0  0  0  0  0
    4.8055   -0.3932    0.0000 C   0  0  0  0  0  0  0  0  0  0  0  0
    5.5200    0.0193    0.0000 C   0  0  0  0  0  0  0  0  0  0  0  0
    6.2345   -0.3932    0.0000 C   0  0  0  0  0  0  0  0  0  0  0  0
    6.9490    0.0193    0.0000 C   0  0  0  0  0  0  0  0  0  0  0  0
    7.6634   -0.3932    0.0000 C   0  0  0  0  0  0  0  0  0  0  0  0
    8.3779    0.0193    0.0000 C   0  0  0  0  0  0  0  0  0  0  0  0
    9.0924   -0.3932    0.0000 C   0  0  0  0  0  0  0  0  0  0  0  0
    9.8068    0.0193    0.0000 C   0  0  0  0  0  0  0  0  0  0  0  0
   10.5213   -0.3932    0.0000 C   0  0  0  0  0  0  0  0  0  0  0  0
   11.2358    0.0193    0.0000 O   0  0  0  0  0  0  0  0  0  0  0  0
   11.9503   -0.3932    0.0000 C   0  0  0  0  0  0  0  0  0  0  0  0
   11.9503   -1.2182    0.0000 O   0  0  0  0  0  0  0  0  0  0  0  0
   12.6647    0.0193    0.0000 C   0  0  0  0  0  0  0  0  0  0  0  0
   12.6647    0.8443    0.0000 C   0  0  0  0  0  0  0  0  0  0  0  0
   13.3792    1.2568    0.0000 C   0  0  0  0  0  0  0  0  0  0  0  0
   13.3792   -0.3932    0.0000 C   0  0  0  0  0  0  0  0  0  0  0  0
   14.0937    0.0193    0.0000 C   0  0  0  0  0  0  0  0  0  0  0  0
   14.8081   -0.3932    0.0000 C   0  0  0  0  0  0  0  0  0  0  0  0
   15.5226    0.0193    0.0000 C   0  0  0  0  0  0  0  0  0  0  0  0
    0.2167    0.7338    0.0000 H   0  0  0  0  0  0  0  0  0  0  0  0
   -0.9102    0.4318    0.0000 H   0  0  0  0  0  0  0  0  0  0  0  0
   -0.6083   -0.6952    0.0000 H   0  0  0  0  0  0  0  0  0  0  0  0
    0.1485   -1.1305    0.0000 H   0  0  0  0  0  0  0  0  0  0  0  0
    0.8890   -1.1305    0.0000 H   0  0  0  0  0  0  0  0  0  0  0  0
    1.6034    0.7565    0.0000 H   0  0  0  0  0  0  0  0  0  0  0  0
    0.8629    0.7565    0.0000 H   0  0  0  0  0  0  0  0  0  0  0  0
    1.5774   -1.1305    0.0000 H   0  0  0  0  0  0  0  0  0  0  0  0
    2.3179   -1.1305    0.0000 H   0  0  0  0  0  0  0  0  0  0  0  0
    3.0324    0.7565    0.0000 H   0  0  0  0  0  0  0  0  0  0  0  0
    2.2919    0.7565    0.0000 H   0  0  0  0  0  0  0  0  0  0  0  0
    3.0063   -1.1305    0.0000 H   0  0  0  0  0  0  0  0  0  0  0  0
    3.7469   -1.1305    0.0000 H   0  0  0  0  0  0  0  0  0  0  0  0
    4.4613    0.7565    0.0000 H   0  0  0  0  0  0  0  0  0  0  0  0
    3.7208    0.7565    0.0000 H   0  0  0  0  0  0  0  0  0  0  0  0
    4.4353   -1.1305    0.0000 H   0  0  0  0  0  0  0  0  0  0  0  0
    5.1758   -1.1305    0.0000 H   0  0  0  0  0  0  0  0  0  0  0  0
    5.8903    0.7565    0.0000 H   0  0  0  0  0  0  0  0  0  0  0  0
    5.1498    0.7565    0.0000 H   0  0  0  0  0  0  0  0  0  0  0  0
    5.8642   -1.1305    0.0000 H   0  0  0  0  0  0  0  0  0  0  0  0
    6.6047   -1.1305    0.0000 H   0  0  0  0  0  0  0  0  0  0  0  0
    7.3192    0.7565    0.0000 H   0  0  0  0  0  0  0  0  0  0  0  0
    6.5787    0.7565    0.0000 H   0  0  0  0  0  0  0  0  0  0  0  0
    7.2932   -1.1305    0.0000 H   0  0  0  0  0  0  0  0  0  0  0  0
    8.0337   -1.1305    0.0000 H   0  0  0  0  0  0  0  0  0  0  0  0
    8.7482    0.7565    0.0000 H   0  0  0  0  0  0  0  0  0  0  0  0
    8.0076    0.7565    0.0000 H   0  0  0  0  0  0  0  0  0  0  0  0
    8.7221   -1.1305    0.0000 H   0  0  0  0  0  0  0  0  0  0  0  0
    9.4626   -1.1305    0.0000 H   0  0  0  0  0  0  0  0  0  0  0  0
   10.1771    0.7565    0.0000 H   0  0  0  0  0  0  0  0  0  0  0  0
    9.4366    0.7565    0.0000 H   0  0  0  0  0  0  0  0  0  0  0  0
   10.1511   -1.1305    0.0000 H   0  0  0  0  0  0  0  0  0  0  0  0
   10.8916   -1.1305    0.0000 H   0  0  0  0  0  0  0  0  0  0  0  0
   11.9503    0.4318    0.0000 H   0  0  0  0  0  0  0  0  0  0  0  0
   12.5215    1.6567    0.0000 H   0  0  0  0  0  0  0  0  0  0  0  0
   12.0327    1.3746    0.0000 H   0  0  0  0  0  0  0  0  0  0  0  0
   13.6101    0.4647    0.0000 H   0  0  0  0  0  0  0  0  0  0  0  0
   14.2034    1.2928    0.0000 H   0  0  0  0  0  0  0  0  0  0  0  0
   13.5401    2.0659    0.0000 H   0  0  0  0  0  0  0  0  0  0  0  0
   13.0089   -1.1305    0.0000 H   0  0  0  0  0  0  0  0  0  0  0  0
   13.7495   -1.1305    0.0000 H   0  0  0  0  0  0  0  0  0  0  0  0
   14.5824    0.6840    0.0000 H   0  0  0  0  0  0  0  0  0  0  0  0
   14.0937   -0.8057    0.0000 H   0  0  0  0  0  0  0  0  0  0  0  0
   14.9514   -1.2057    0.0000 H   0  0  0  0  0  0  0  0  0  0  0  0
   15.4401   -0.9235    0.0000 H   0  0  0  0  0  0  0  0  0  0  0  0
   16.3038   -0.2459    0.0000 H   0  0  0  0  0  0  0  0  0  0  0  0
   15.9659    0.7151    0.0000 H   0  0  0  0  0  0  0  0  0  0  0  0
   14.9521    0.6152    0.0000 H   0  0  0  0  0  0  0  0  0  0  0  0
  1  2  1  0  0  0  0
  2  3  1  0  0  0  0
  3  4  1  0  0  0  0
  4  5  1  0  0  0  0
  5  6  1  0  0  0  0
  6  7  1  0  0  0  0
  7  8  1  0  0  0  0
  8  9  1  0  0  0  0
  9 10  1  0  0  0  0
 10 11  1  0  0  0  0
 11 12  1  0  0  0  0
 12 13  1  0  0  0  0
 13 14  1  0  0  0  0
 14 15  1  0  0  0  0
 15 16  1  0  0  0  0
 16 17  1  0  0  0  0
 17 18  1  0  0  0  0
 18 19  2  0  0  0  0
 18 20  1  0  0  0  0
 20 21  1  0  0  0  0
 21 22  1  0  0  0  0
 20 23  1  0  0  0  0
 23 24  1  0  0  0  0
 24 25  1  0  0  0  0
 25 26  1  0  0  0  0
  1 27  1  0  0  0  0
  1 28  1  0  0  0  0
  1 29  1  0  0  0  0
  2 30  1  0  0  0  0
  2 31  1  0  0  0  0
  3 32  1  0  0  0  0
  3 33  1  0  0  0  0
  4 34  1  0  0  0  0
  4 35  1  0  0  0  0
  5 36  1  0  0  0  0
  5 37  1  0  0  0  0
  6 38  1  0  0  0  0
  6 39  1  0  0  0  0
  7 40  1  0  0  0  0
  7 41  1  0  0  0  0
  8 42  1  0  0  0  0
  8 43  1  0  0  0  0
  9 44  1  0  0  0  0
  9 45  1  0  0  0  0
 10 46  1  0  0  0  0
 10 47  1  0  0  0  0
 11 48  1  0  0  0  0
 11 49  1  0  0  0  0
 12 50  1  0  0  0  0
 12 51  1  0  0  0  0
 13 52  1  0  0  0  0
 13 53  1  0  0  0  0
 14 54  1  0  0  0  0
 14 55  1  0  0  0  0
 15 56  1  0  0  0  0
 15 57  1  0  0  0  0
 16 58  1  0  0  0  0
 16 59  1  0  0  0  0
 20 60  1  0  0  0  0
 21 61  1  0  0  0  0
 21 62  1  0  0  0  0
 22 63  1  0  0  0  0
 22 64  1  0  0  0  0
 22 65  1  0  0  0  0
 23 66  1  0  0  0  0
 23 67  1  0  0  0  0
 24 68  1  0  0  0  0
 24 69  1  0  0  0  0
 25 70  1  0  0  0  0
 25 71  1  0  0  0  0
 26 72  1  0  0  0  0
 26 73  1  0  0  0  0
 26 74  1  0  0  0  0
M  END
>  <id_input>
4458

>  <InChIKey>
XJNUECKWDBNFJV-UHFFFAOYSA-N

>  <substance_name>
hexadecyl 2-ethylhexanoate

>  <casrn>
59130-69-7

>  <Molecular weight>
368.63671875

>  <guideline>
OECD Guideline 404 (Acute Dermal Irritation / Corrosion)

>  <species>
rabbit

>  <type_of_coverage>
semiocclusive

>  <max_duration(hrs)>
4.0

>  <vehicle>
unchanged (no vehicle)

>  <edema/ erythema score>
1.66666666666666

>  <max_score>
4.0

>  <reversibility>
0.0

>  <Outcome>
1

>  <StandardizerResult>
Remove Explicit Hydrogens (ID: RemoveExplicitH)
Clear Stereo (ID: ClearStereo)
Wedge Clean (ID: WedgeClean)
Mesomerize (ID: Mesomerize)
Tautomerize (ID: Tautomerize)
Add Explicit Hydrogens (ID: AddExplicitH)
Neutralize (ID: Neutralize)
Clean 2D (ID: Clean2D)


$$$$

  Mrv1812 02121911042D          

 58 57  0  0  0  0            999 V2000
   -3.1475    2.4338    0.0000 C   0  0  0  0  0  0  0  0  0  0  0  0
   -3.1475    1.6088    0.0000 C   0  0  0  0  0  0  0  0  0  0  0  0
   -2.4330    1.1963    0.0000 C   0  0  0  0  0  0  0  0  0  0  0  0
   -2.4330    0.3713    0.0000 C   0  0  0  0  0  0  0  0  0  0  0  0
   -1.7185   -0.0412    0.0000 C   0  0  0  0  0  0  0  0  0  0  0  0
   -1.7185   -0.8662    0.0000 C   0  0  0  0  0  0  0  0  0  0  0  0
   -1.0041   -1.2787    0.0000 C   0  0  0  0  0  0  0  0  0  0  0  0
   -0.2896   -0.8662    0.0000 O   0  0  0  0  0  0  0  0  0  0  0  0
   -1.0041   -2.1037    0.0000 C   0  0  0  0  0  0  0  0  0  0  0  0
   -0.2896   -2.5162    0.0000 C   0  0  0  0  0  0  0  0  0  0  0  0
   -0.2896   -3.3412    0.0000 C   0  0  0  0  0  0  0  0  0  0  0  0
    0.4249   -3.7537    0.0000 C   0  0  0  0  0  0  0  0  0  0  0  0
    1.1393   -3.3412    0.0000 C   0  0  0  0  0  0  0  0  0  0  0  0
    1.8538   -3.7537    0.0000 C   0  0  0  0  0  0  0  0  0  0  0  0
    2.5683   -3.3412    0.0000 C   0  0  0  0  0  0  0  0  0  0  0  0
    3.2828   -3.7537    0.0000 C   0  0  0  0  0  0  0  0  0  0  0  0
    3.9972   -3.3412    0.0000 C   0  0  0  0  0  0  0  0  0  0  0  0
    4.7117   -3.7537    0.0000 C   0  0  0  0  0  0  0  0  0  0  0  0
    5.4262   -3.3412    0.0000 C   0  0  0  0  0  0  0  0  0  0  0  0
    5.4262   -2.5162    0.0000 O   0  0  0  0  0  0  0  0  0  0  0  0
    6.1406   -3.7537    0.0000 O   0  0  0  0  0  0  0  0  0  0  0  0
    6.8551   -3.3412    0.0000 C   0  0  0  0  0  0  0  0  0  0  0  0
   -2.3225    2.4338    0.0000 H   0  0  0  0  0  0  0  0  0  0  0  0
   -3.1475    3.2588    0.0000 H   0  0  0  0  0  0  0  0  0  0  0  0
   -3.9725    2.4338    0.0000 H   0  0  0  0  0  0  0  0  0  0  0  0
   -3.9711    1.5608    0.0000 H   0  0  0  0  0  0  0  0  0  0  0  0
   -3.6008    0.9195    0.0000 H   0  0  0  0  0  0  0  0  0  0  0  0
   -1.6094    1.2443    0.0000 H   0  0  0  0  0  0  0  0  0  0  0  0
   -1.9797    1.8856    0.0000 H   0  0  0  0  0  0  0  0  0  0  0  0
   -3.2566    0.3233    0.0000 H   0  0  0  0  0  0  0  0  0  0  0  0
   -2.8864   -0.3180    0.0000 H   0  0  0  0  0  0  0  0  0  0  0  0
   -0.8949    0.0068    0.0000 H   0  0  0  0  0  0  0  0  0  0  0  0
   -1.2652    0.6481    0.0000 H   0  0  0  0  0  0  0  0  0  0  0  0
   -2.5421   -0.9142    0.0000 H   0  0  0  0  0  0  0  0  0  0  0  0
   -2.1719   -1.5555    0.0000 H   0  0  0  0  0  0  0  0  0  0  0  0
   -1.0041   -0.4537    0.0000 H   0  0  0  0  0  0  0  0  0  0  0  0
    0.5354   -0.8662    0.0000 H   0  0  0  0  0  0  0  0  0  0  0  0
   -1.8277   -2.1517    0.0000 H   0  0  0  0  0  0  0  0  0  0  0  0
   -1.4574   -2.7930    0.0000 H   0  0  0  0  0  0  0  0  0  0  0  0
    0.4249   -2.1037    0.0000 H   0  0  0  0  0  0  0  0  0  0  0  0
   -1.0041   -3.7537    0.0000 H   0  0  0  0  0  0  0  0  0  0  0  0
    0.0546   -4.4910    0.0000 H   0  0  0  0  0  0  0  0  0  0  0  0
    0.7951   -4.4910    0.0000 H   0  0  0  0  0  0  0  0  0  0  0  0
    1.5096   -2.6040    0.0000 H   0  0  0  0  0  0  0  0  0  0  0  0
    0.7691   -2.6040    0.0000 H   0  0  0  0  0  0  0  0  0  0  0  0
    1.4836   -4.4910    0.0000 H   0  0  0  0  0  0  0  0  0  0  0  0
    2.2241   -4.4910    0.0000 H   0  0  0  0  0  0  0  0  0  0  0  0
    2.9385   -2.6040    0.0000 H   0  0  0  0  0  0  0  0  0  0  0  0
    2.1980   -2.6040    0.0000 H   0  0  0  0  0  0  0  0  0  0  0  0
    2.9125   -4.4910    0.0000 H   0  0  0  0  0  0  0  0  0  0  0  0
    3.6530   -4.4910    0.0000 H   0  0  0  0  0  0  0  0  0  0  0  0
    4.3675   -2.6040    0.0000 H   0  0  0  0  0  0  0  0  0  0  0  0
    3.6270   -2.6040    0.0000 H   0  0  0  0  0  0  0  0  0  0  0  0
    4.3414   -4.4910    0.0000 H   0  0  0  0  0  0  0  0  0  0  0  0
    5.0820   -4.4910    0.0000 H   0  0  0  0  0  0  0  0  0  0  0  0
    7.2676   -4.0557    0.0000 H   0  0  0  0  0  0  0  0  0  0  0  0
    7.5696   -2.9287    0.0000 H   0  0  0  0  0  0  0  0  0  0  0  0
    6.4426   -2.6267    0.0000 H   0  0  0  0  0  0  0  0  0  0  0  0
  1  2  1  0  0  0  0
  2  3  1  0  0  0  0
  3  4  1  0  0  0  0
  4  5  1  0  0  0  0
  5  6  1  0  0  0  0
  6  7  1  0  0  0  0
  7  8  1  0  0  0  0
  7  9  1  0  0  0  0
 10  9  1  4  0  0  0
 10 11  2  0  0  0  0
 11 12  1  0  0  0  0
 12 13  1  0  0  0  0
 13 14  1  0  0  0  0
 14 15  1  0  0  0  0
 15 16  1  0  0  0  0
 16 17  1  0  0  0  0
 17 18  1  0  0  0  0
 18 19  1  0  0  0  0
 19 20  2  0  0  0  0
 19 21  1  0  0  0  0
 21 22  1  0  0  0  0
  1 23  1  0  0  0  0
  1 24  1  0  0  0  0
  1 25  1  0  0  0  0
  2 26  1  0  0  0  0
  2 27  1  0  0  0  0
  3 28  1  0  0  0  0
  3 29  1  0  0  0  0
  4 30  1  0  0  0  0
  4 31  1  0  0  0  0
  5 32  1  0  0  0  0
  5 33  1  0  0  0  0
  6 34  1  0  0  0  0
  6 35  1  0  0  0  0
  7 36  1  0  0  0  0
  8 37  1  0  0  0  0
  9 38  1  0  0  0  0
  9 39  1  0  0  0  0
 10 40  1  0  0  0  0
 11 41  1  0  0  0  0
 12 42  1  0  0  0  0
 12 43  1  0  0  0  0
 13 44  1  0  0  0  0
 13 45  1  0  0  0  0
 14 46  1  0  0  0  0
 14 47  1  0  0  0  0
 15 48  1  0  0  0  0
 15 49  1  0  0  0  0
 16 50  1  0  0  0  0
 16 51  1  0  0  0  0
 17 52  1  0  0  0  0
 17 53  1  0  0  0  0
 18 54  1  0  0  0  0
 18 55  1  0  0  0  0
 22 56  1  0  0  0  0
 22 57  1  0  0  0  0
 22 58  1  0  0  0  0
M  END
>  <id_input>
4534

>  <InChIKey>
XKGDWZQXVZSXAO-UHFFFAOYSA-N

>  <substance_name>
methyl 12-hydroxyoctadec-9-enoate

>  <casrn>
141-24-2

>  <Molecular weight>
312.4873352050781

>  <guideline>
OECD Guideline 404 (Acute Dermal Irritation / Corrosion)

>  <species>
rabbit

>  <type_of_coverage>
semiocclusive

>  <max_duration(hrs)>
4.0

>  <vehicle>
unchanged (no vehicle)

>  <edema/ erythema score>
2.0

>  <max_score>
4.0

>  <reversibility>
0.0

>  <Outcome>
1

>  <StandardizerResult>
Remove Explicit Hydrogens (ID: RemoveExplicitH)
Clear Stereo (ID: ClearStereo)
Wedge Clean (ID: WedgeClean)
Mesomerize (ID: Mesomerize)
Tautomerize (ID: Tautomerize)
Add Explicit Hydrogens (ID: AddExplicitH)
Neutralize (ID: Neutralize)
Clean 2D (ID: Clean2D)


$$$$

  Mrv1812 02121911042D          

 32 32  0  0  0  0            999 V2000
    3.7764    0.0038    0.0000 C   0  0  0  0  0  0  0  0  0  0  0  0
    3.0619    0.4163    0.0000 O   0  0  0  0  0  0  0  0  0  0  0  0
    2.3474    0.0038    0.0000 Si  0  0  0  0  0  4  0  0  0  0  0  0
    1.6330    0.4163    0.0000 C   0  0  0  0  0  0  0  0  0  0  0  0
    0.9185    0.0038    0.0000 C   0  0  0  0  0  0  0  0  0  0  0  0
    0.2040    0.4163    0.0000 C   0  0  0  0  0  0  0  0  0  0  0  0
   -0.5104    0.0038    0.0000 C   0  0  0  0  0  0  0  0  0  0  0  0
   -0.5104   -0.8212    0.0000 C   0  0  0  0  0  0  0  0  0  0  0  0
    0.2040   -1.2337    0.0000 C   0  0  0  0  0  0  0  0  0  0  0  0
    0.9185   -0.8212    0.0000 C   0  0  0  0  0  0  0  0  0  0  0  0
    2.3474   -0.8212    0.0000 O   0  0  0  0  0  0  0  0  0  0  0  0
    1.6330   -1.2337    0.0000 C   0  0  0  0  0  0  0  0  0  0  0  0
    3.3639   -0.7106    0.0000 H   0  0  0  0  0  0  0  0  0  0  0  0
    4.4909   -0.4087    0.0000 H   0  0  0  0  0  0  0  0  0  0  0  0
    4.1889    0.7183    0.0000 H   0  0  0  0  0  0  0  0  0  0  0  0
    2.3474    0.8288    0.0000 H   0  0  0  0  0  0  0  0  0  0  0  0
    1.4897    1.2288    0.0000 H   0  0  0  0  0  0  0  0  0  0  0  0
    1.0010    0.9466    0.0000 H   0  0  0  0  0  0  0  0  0  0  0  0
    1.6330   -0.4087    0.0000 H   0  0  0  0  0  0  0  0  0  0  0  0
    0.1691    1.2406    0.0000 H   0  0  0  0  0  0  0  0  0  0  0  0
   -0.5190    0.8136    0.0000 H   0  0  0  0  0  0  0  0  0  0  0  0
   -1.2278    0.4113    0.0000 H   0  0  0  0  0  0  0  0  0  0  0  0
   -1.2235   -0.4112    0.0000 H   0  0  0  0  0  0  0  0  0  0  0  0
   -1.2244   -1.2345    0.0000 H   0  0  0  0  0  0  0  0  0  0  0  0
   -0.5100   -1.6462    0.0000 H   0  0  0  0  0  0  0  0  0  0  0  0
    0.2042   -2.0587    0.0000 H   0  0  0  0  0  0  0  0  0  0  0  0
    0.9185   -1.6461    0.0000 H   0  0  0  0  0  0  0  0  0  0  0  0
    0.3882   -0.1892    0.0000 H   0  0  0  0  0  0  0  0  0  0  0  0
    0.1060   -0.6779    0.0000 H   0  0  0  0  0  0  0  0  0  0  0  0
    1.4194   -2.0305    0.0000 H   0  0  0  0  0  0  0  0  0  0  0  0
    2.0454   -1.9481    0.0000 H   0  0  0  0  0  0  0  0  0  0  0  0
    2.4299   -1.4472    0.0000 H   0  0  0  0  0  0  0  0  0  0  0  0
  1  2  1  0  0  0  0
  2  3  1  0  0  0  0
  3  4  1  0  0  0  0
  4  5  1  0  0  0  0
  6  5  1  0  0  0  0
  7  6  1  0  0  0  0
  8  7  1  0  0  0  0
  9  8  1  0  0  0  0
 10  9  1  0  0  0  0
  3 11  1  0  0  0  0
 11 12  1  0  0  0  0
  5 10  1  0  0  0  0
  1 13  1  0  0  0  0
  1 14  1  0  0  0  0
  1 15  1  0  0  0  0
  3 16  1  0  0  0  0
  4 17  1  0  0  0  0
  4 18  1  0  0  0  0
  5 19  1  0  0  0  0
  6 20  1  0  0  0  0
  6 21  1  0  0  0  0
  7 22  1  0  0  0  0
  7 23  1  0  0  0  0
  8 24  1  0  0  0  0
  8 25  1  0  0  0  0
  9 26  1  0  0  0  0
  9 27  1  0  0  0  0
 10 28  1  0  0  0  0
 10 29  1  0  0  0  0
 12 30  1  0  0  0  0
 12 31  1  0  0  0  0
 12 32  1  0  0  0  0
M  END
>  <id_input>
349, 698, 1249

>  <InChIKey>
XRLIOAUFFCHSIC-UHFFFAOYSA-N

>  <substance_name>
-

>  <casrn>
17865-32-6

>  <Molecular weight>
188.3394012451172

>  <guideline>
OECD Guideline 404 (Acute Dermal Irritation / Corrosion)

>  <species>
rabbit

>  <type_of_coverage>
semiocclusive

>  <max_duration(hrs)>
4.0

>  <vehicle>
unchanged (no vehicle)

>  <edema/ erythema score>
2.3333333333333295

>  <max_score>
4.0

>  <reversibility>
0.0

>  <Outcome>
1

>  <StandardizerResult>
Remove Explicit Hydrogens (ID: RemoveExplicitH)
Clear Stereo (ID: ClearStereo)
Wedge Clean (ID: WedgeClean)
Mesomerize (ID: Mesomerize)
Tautomerize (ID: Tautomerize)
Add Explicit Hydrogens (ID: AddExplicitH)
Neutralize (ID: Neutralize)
Clean 2D (ID: Clean2D)


$$$$

  Mrv1812 02121911042D          

  6  5  0  0  0  0            999 V2000
    1.1822    0.9207    0.0000 Cl  0  0  0  0  0  0  0  0  0  0  0  0
    0.7697    0.2063    0.0000 C   0  0  0  0  0  0  0  0  0  0  0  0
   -0.0553    0.2063    0.0000 C   0  0  0  0  0  0  0  0  0  0  0  0
   -0.4678   -0.5082    0.0000 Cl  0  0  0  0  0  0  0  0  0  0  0  0
   -0.4678    0.9207    0.0000 Cl  0  0  0  0  0  0  0  0  0  0  0  0
    1.1822   -0.5082    0.0000 H   0  0  0  0  0  0  0  0  0  0  0  0
  2  1  1  0  0  0  0
  2  3  2  0  0  0  0
  3  4  1  0  0  0  0
  3  5  1  0  0  0  0
  2  6  1  0  0  0  0
M  END
>  <id_input>
1690

>  <InChIKey>
XSTXAVWGXDQKEL-UHFFFAOYSA-N

>  <substance_name>
1,1,2-trichloroethene

>  <casrn>
79-01-6

>  <Molecular weight>
131.38833618164062

>  <guideline>
OECD Guideline 404 (Acute Dermal Irritation / Corrosion)

>  <species>
rabbit

>  <type_of_coverage>
occlusive

>  <max_duration(hrs)>
4.0

>  <vehicle>
other: stabilized with thymol

>  <edema/ erythema score>
3.9

>  <max_score>
4.0

>  <reversibility>
0.0

>  <Outcome>
1

>  <StandardizerResult>
Remove Explicit Hydrogens (ID: RemoveExplicitH)
Clear Stereo (ID: ClearStereo)
Wedge Clean (ID: WedgeClean)
Mesomerize (ID: Mesomerize)
Tautomerize (ID: Tautomerize)
Add Explicit Hydrogens (ID: AddExplicitH)
Neutralize (ID: Neutralize)
Clean 2D (ID: Clean2D)


$$$$

  Mrv1812 02121911042D          

 44 43  0  0  0  0            999 V2000
   -0.4260   -0.7378    0.0000 C   0  0  0  0  0  0  0  0  0  0  0  0
    0.2884   -0.3253    0.0000 C   0  0  0  0  0  0  0  0  0  0  0  0
    1.0029   -0.7378    0.0000 C   0  0  0  0  0  0  0  0  0  0  0  0
    1.7174   -0.3253    0.0000 C   0  0  0  0  0  0  0  0  0  0  0  0
    2.4319   -0.7378    0.0000 O   0  0  0  0  0  0  0  0  0  0  0  0
    3.1463   -0.3253    0.0000 C   0  0  0  0  0  0  0  0  0  0  0  0
    3.1463    0.4997    0.0000 O   0  0  0  0  0  0  0  0  0  0  0  0
    3.8608   -0.7378    0.0000 C   0  0  0  0  0  0  0  0  0  0  0  0
    4.5753   -0.3253    0.0000 C   0  0  0  0  0  0  0  0  0  0  0  0
    5.2897   -0.7378    0.0000 C   0  0  0  0  0  0  0  0  0  0  0  0
    6.0042   -0.3253    0.0000 C   0  0  0  0  0  0  0  0  0  0  0  0
    6.7187   -0.7378    0.0000 C   0  0  0  0  0  0  0  0  0  0  0  0
    6.7187   -1.5628    0.0000 O   0  0  0  0  0  0  0  0  0  0  0  0
    7.4331   -0.3253    0.0000 O   0  0  0  0  0  0  0  0  0  0  0  0
    8.1476   -0.7378    0.0000 C   0  0  0  0  0  0  0  0  0  0  0  0
    8.8621   -0.3253    0.0000 C   0  0  0  0  0  0  0  0  0  0  0  0
    9.5766   -0.7378    0.0000 C   0  0  0  0  0  0  0  0  0  0  0  0
   10.2910   -0.3253    0.0000 C   0  0  0  0  0  0  0  0  0  0  0  0
   -0.8385   -0.0233    0.0000 H   0  0  0  0  0  0  0  0  0  0  0  0
   -1.1405   -1.1503    0.0000 H   0  0  0  0  0  0  0  0  0  0  0  0
   -0.0135   -1.4523    0.0000 H   0  0  0  0  0  0  0  0  0  0  0  0
    0.6587    0.4119    0.0000 H   0  0  0  0  0  0  0  0  0  0  0  0
   -0.0818    0.4119    0.0000 H   0  0  0  0  0  0  0  0  0  0  0  0
    0.6327   -1.4750    0.0000 H   0  0  0  0  0  0  0  0  0  0  0  0
    1.3732   -1.4750    0.0000 H   0  0  0  0  0  0  0  0  0  0  0  0
    2.0876    0.4119    0.0000 H   0  0  0  0  0  0  0  0  0  0  0  0
    1.3471    0.4119    0.0000 H   0  0  0  0  0  0  0  0  0  0  0  0
    3.4905   -1.4750    0.0000 H   0  0  0  0  0  0  0  0  0  0  0  0
    4.2311   -1.4750    0.0000 H   0  0  0  0  0  0  0  0  0  0  0  0
    4.9455    0.4119    0.0000 H   0  0  0  0  0  0  0  0  0  0  0  0
    4.2050    0.4119    0.0000 H   0  0  0  0  0  0  0  0  0  0  0  0
    4.9195   -1.4750    0.0000 H   0  0  0  0  0  0  0  0  0  0  0  0
    5.6600   -1.4750    0.0000 H   0  0  0  0  0  0  0  0  0  0  0  0
    6.3745    0.4119    0.0000 H   0  0  0  0  0  0  0  0  0  0  0  0
    5.6339    0.4119    0.0000 H   0  0  0  0  0  0  0  0  0  0  0  0
    7.7774   -1.4750    0.0000 H   0  0  0  0  0  0  0  0  0  0  0  0
    8.5179   -1.4750    0.0000 H   0  0  0  0  0  0  0  0  0  0  0  0
    9.2323    0.4119    0.0000 H   0  0  0  0  0  0  0  0  0  0  0  0
    8.4918    0.4119    0.0000 H   0  0  0  0  0  0  0  0  0  0  0  0
    9.2063   -1.4750    0.0000 H   0  0  0  0  0  0  0  0  0  0  0  0
    9.9468   -1.4750    0.0000 H   0  0  0  0  0  0  0  0  0  0  0  0
   10.7035   -1.0398    0.0000 H   0  0  0  0  0  0  0  0  0  0  0  0
   11.0055    0.0872    0.0000 H   0  0  0  0  0  0  0  0  0  0  0  0
    9.8785    0.3892    0.0000 H   0  0  0  0  0  0  0  0  0  0  0  0
  1  2  1  0  0  0  0
  2  3  1  0  0  0  0
  3  4  1  0  0  0  0
  4  5  1  0  0  0  0
  5  6  1  0  0  0  0
  6  7  2  0  0  0  0
  6  8  1  0  0  0  0
  8  9  1  0  0  0  0
  9 10  1  0  0  0  0
 10 11  1  0  0  0  0
 11 12  1  0  0  0  0
 12 13  2  0  0  0  0
 12 14  1  0  0  0  0
 14 15  1  0  0  0  0
 15 16  1  0  0  0  0
 16 17  1  0  0  0  0
 17 18  1  0  0  0  0
  1 19  1  0  0  0  0
  1 20  1  0  0  0  0
  1 21  1  0  0  0  0
  2 22  1  0  0  0  0
  2 23  1  0  0  0  0
  3 24  1  0  0  0  0
  3 25  1  0  0  0  0
  4 26  1  0  0  0  0
  4 27  1  0  0  0  0
  8 28  1  0  0  0  0
  8 29  1  0  0  0  0
  9 30  1  0  0  0  0
  9 31  1  0  0  0  0
 10 32  1  0  0  0  0
 10 33  1  0  0  0  0
 11 34  1  0  0  0  0
 11 35  1  0  0  0  0
 15 36  1  0  0  0  0
 15 37  1  0  0  0  0
 16 38  1  0  0  0  0
 16 39  1  0  0  0  0
 17 40  1  0  0  0  0
 17 41  1  0  0  0  0
 18 42  1  0  0  0  0
 18 43  1  0  0  0  0
 18 44  1  0  0  0  0
M  END
>  <id_input>
1830

>  <InChIKey>
XTJFFFGAUHQWII-UHFFFAOYSA-N

>  <substance_name>
1,6-dibutyl hexanedioate

>  <casrn>
105-99-7

>  <Molecular weight>
258.3538513183594

>  <guideline>
OECD Guideline 404 (Acute Dermal Irritation / Corrosion)

>  <species>
rabbit

>  <type_of_coverage>
semiocclusive

>  <max_duration(hrs)>
4.0

>  <vehicle>
unchanged (no vehicle)

>  <edema/ erythema score>
1.77666666666666

>  <max_score>
4.0

>  <reversibility>
0.0

>  <Outcome>
1

>  <StandardizerResult>
Remove Explicit Hydrogens (ID: RemoveExplicitH)
Clear Stereo (ID: ClearStereo)
Wedge Clean (ID: WedgeClean)
Mesomerize (ID: Mesomerize)
Tautomerize (ID: Tautomerize)
Add Explicit Hydrogens (ID: AddExplicitH)
Neutralize (ID: Neutralize)
Clean 2D (ID: Clean2D)


$$$$

  Mrv1812 02121911042D          

 23 23  0  0  0  0            999 V2000
    2.8768    0.2859    0.0000 C   0  0  0  0  0  0  0  0  0  0  0  0
    2.1624   -0.1266    0.0000 N   0  0  0  0  0  0  0  0  0  0  0  0
    2.1624   -0.9516    0.0000 C   0  0  0  0  0  0  0  0  0  0  0  0
    1.4479    0.2859    0.0000 C   0  0  0  0  0  0  0  0  0  0  0  0
    0.7334   -0.1266    0.0000 C   0  0  0  0  0  0  0  0  0  0  0  0
    0.0190    0.2859    0.0000 C   0  0  0  0  0  0  0  0  0  0  0  0
   -0.6955   -0.1266    0.0000 C   0  0  0  0  0  0  0  0  0  0  0  0
   -0.6955   -0.9516    0.0000 C   0  0  0  0  0  0  0  0  0  0  0  0
    0.0190   -1.3641    0.0000 C   0  0  0  0  0  0  0  0  0  0  0  0
    0.7334   -0.9516    0.0000 C   0  0  0  0  0  0  0  0  0  0  0  0
    3.2893   -0.4285    0.0000 H   0  0  0  0  0  0  0  0  0  0  0  0
    3.5913    0.6984    0.0000 H   0  0  0  0  0  0  0  0  0  0  0  0
    2.4643    1.0004    0.0000 H   0  0  0  0  0  0  0  0  0  0  0  0
    1.3374   -0.9516    0.0000 H   0  0  0  0  0  0  0  0  0  0  0  0
    2.1624   -1.7766    0.0000 H   0  0  0  0  0  0  0  0  0  0  0  0
    2.9874   -0.9516    0.0000 H   0  0  0  0  0  0  0  0  0  0  0  0
    1.8182    1.0232    0.0000 H   0  0  0  0  0  0  0  0  0  0  0  0
    1.0776    1.0232    0.0000 H   0  0  0  0  0  0  0  0  0  0  0  0
    0.0190    1.1109    0.0000 H   0  0  0  0  0  0  0  0  0  0  0  0
   -1.4100    0.2859    0.0000 H   0  0  0  0  0  0  0  0  0  0  0  0
   -1.4100   -1.3641    0.0000 H   0  0  0  0  0  0  0  0  0  0  0  0
    0.0190   -2.1891    0.0000 H   0  0  0  0  0  0  0  0  0  0  0  0
    0.9470   -1.7484    0.0000 H   0  0  0  0  0  0  0  0  0  0  0  0
  1  2  1  0  0  0  0
  2  3  1  0  0  0  0
  2  4  1  0  0  0  0
  4  5  1  0  0  0  0
  6  5  4  0  0  0  0
  7  6  4  0  0  0  0
  8  7  4  0  0  0  0
  9  8  4  0  0  0  0
 10  9  4  0  0  0  0
  5 10  4  0  0  0  0
  1 11  1  0  0  0  0
  1 12  1  0  0  0  0
  1 13  1  0  0  0  0
  3 14  1  0  0  0  0
  3 15  1  0  0  0  0
  3 16  1  0  0  0  0
  4 17  1  0  0  0  0
  4 18  1  0  0  0  0
  6 19  1  0  0  0  0
  7 20  1  0  0  0  0
  8 21  1  0  0  0  0
  9 22  1  0  0  0  0
 10 23  1  0  0  0  0
M  END
>  <id_input>
3905

>  <InChIKey>
XXBDWLFCJWSEKW-UHFFFAOYSA-N

>  <substance_name>
benzyldimethylamine

>  <casrn>
103-83-3

>  <Molecular weight>
135.2062225341797

>  <guideline>
OECD Guideline 404 (Acute Dermal Irritation / Corrosion)

>  <species>
rabbit

>  <type_of_coverage>
semiocclusive

>  <max_duration(hrs)>
4.0

>  <vehicle>
unchanged (no vehicle)

>  <edema/ erythema score>
4.0

>  <max_score>
4.0

>  <reversibility>
1.0

>  <Outcome>
1

>  <StandardizerResult>
Remove Explicit Hydrogens (ID: RemoveExplicitH)
Dearomatize (ID: Dearomatize)
Clear Stereo (ID: ClearStereo)
Wedge Clean (ID: WedgeClean)
Mesomerize (ID: Mesomerize)
Tautomerize (ID: Tautomerize)
Aromatize (ID: Aromatize)
Add Explicit Hydrogens (ID: AddExplicitH)
Neutralize (ID: Neutralize)
Clean 2D (ID: Clean2D)


$$$$

  Mrv1812 02121911042D          

 29 28  0  0  0  0            999 V2000
    2.5134   -2.1203    0.0000 C   0  0  0  0  0  0  0  0  0  0  0  0
    2.5134   -1.2953    0.0000 O   0  0  0  0  0  0  0  0  0  0  0  0
    1.7989   -0.8828    0.0000 Si  0  0  0  0  0  4  0  0  0  0  0  0
    1.0845   -0.4703    0.0000 C   0  0  0  0  0  0  0  0  0  0  0  0
    1.0845    0.3547    0.0000 C   0  0  0  0  0  0  0  0  0  0  0  0
    0.3700    0.7672    0.0000 C   0  0  0  0  0  0  0  0  0  0  0  0
    1.7989    0.7672    0.0000 C   0  0  0  0  0  0  0  0  0  0  0  0
    2.2114   -0.1683    0.0000 O   0  0  0  0  0  0  0  0  0  0  0  0
    3.0364   -0.1683    0.0000 C   0  0  0  0  0  0  0  0  0  0  0  0
    1.3864   -1.5973    0.0000 O   0  0  0  0  0  0  0  0  0  0  0  0
    0.5614   -1.5973    0.0000 C   0  0  0  0  0  0  0  0  0  0  0  0
    1.6884   -2.1203    0.0000 H   0  0  0  0  0  0  0  0  0  0  0  0
    2.5134   -2.9453    0.0000 H   0  0  0  0  0  0  0  0  0  0  0  0
    3.3384   -2.1203    0.0000 H   0  0  0  0  0  0  0  0  0  0  0  0
    0.2609   -0.5183    0.0000 H   0  0  0  0  0  0  0  0  0  0  0  0
    0.6311   -1.1596    0.0000 H   0  0  0  0  0  0  0  0  0  0  0  0
    0.3700   -0.0578    0.0000 H   0  0  0  0  0  0  0  0  0  0  0  0
    0.9533    1.3506    0.0000 H   0  0  0  0  0  0  0  0  0  0  0  0
   -0.0425    1.4817    0.0000 H   0  0  0  0  0  0  0  0  0  0  0  0
   -0.4269    0.5537    0.0000 H   0  0  0  0  0  0  0  0  0  0  0  0
    2.2114    0.0527    0.0000 H   0  0  0  0  0  0  0  0  0  0  0  0
    2.5134    1.1797    0.0000 H   0  0  0  0  0  0  0  0  0  0  0  0
    1.3864    1.4817    0.0000 H   0  0  0  0  0  0  0  0  0  0  0  0
    2.9825   -0.9916    0.0000 H   0  0  0  0  0  0  0  0  0  0  0  0
    3.8544   -0.2760    0.0000 H   0  0  0  0  0  0  0  0  0  0  0  0
    3.1974    0.6408    0.0000 H   0  0  0  0  0  0  0  0  0  0  0  0
   -0.1581   -1.1937    0.0000 H   0  0  0  0  0  0  0  0  0  0  0  0
   -0.0661   -2.1328    0.0000 H   0  0  0  0  0  0  0  0  0  0  0  0
    0.8468   -2.3713    0.0000 H   0  0  0  0  0  0  0  0  0  0  0  0
  1  2  1  0  0  0  0
  2  3  1  0  0  0  0
  3  4  1  0  0  0  0
  4  5  1  0  0  0  0
  5  6  1  0  0  0  0
  5  7  1  0  0  0  0
  3  8  1  0  0  0  0
  8  9  1  0  0  0  0
  3 10  1  0  0  0  0
 10 11  1  0  0  0  0
  1 12  1  0  0  0  0
  1 13  1  0  0  0  0
  1 14  1  0  0  0  0
  4 15  1  0  0  0  0
  4 16  1  0  0  0  0
  5 17  1  0  0  0  0
  6 18  1  0  0  0  0
  6 19  1  0  0  0  0
  6 20  1  0  0  0  0
  7 21  1  0  0  0  0
  7 22  1  0  0  0  0
  7 23  1  0  0  0  0
  9 24  1  0  0  0  0
  9 25  1  0  0  0  0
  9 26  1  0  0  0  0
 11 27  1  0  0  0  0
 11 28  1  0  0  0  0
 11 29  1  0  0  0  0
M  END
>  <id_input>
5150

>  <InChIKey>
XYJRNCYWTVGEEG-UHFFFAOYSA-N

>  <substance_name>
trimethoxy(2-methylpropyl)silane

>  <casrn>
18395-30-7

>  <Molecular weight>
178.30152893066406

>  <guideline>
OECD Guideline 404 (Acute Dermal Irritation / Corrosion)

>  <species>
rabbit

>  <type_of_coverage>
semiocclusive

>  <max_duration(hrs)>
4.0

>  <vehicle>
unchanged (no vehicle)

>  <edema/ erythema score>
2.6675

>  <max_score>
3.0

>  <reversibility>
0.0

>  <Outcome>
1

>  <StandardizerResult>
Remove Explicit Hydrogens (ID: RemoveExplicitH)
Clear Stereo (ID: ClearStereo)
Wedge Clean (ID: WedgeClean)
Mesomerize (ID: Mesomerize)
Tautomerize (ID: Tautomerize)
Add Explicit Hydrogens (ID: AddExplicitH)
Neutralize (ID: Neutralize)
Clean 2D (ID: Clean2D)


$$$$

  Mrv1812 02121911042D          

 39 38  0  0  0  0            999 V2000
    0.1178   -0.0929    0.0000 C   0  0  0  0  0  0  0  0  0  0  0  0
    0.8323    0.3196    0.0000 C   0  0  0  0  0  0  0  0  0  0  0  0
    1.5468   -0.0929    0.0000 C   0  0  0  0  0  0  0  0  0  0  0  0
    0.8323    1.1446    0.0000 C   0  0  0  0  0  0  0  0  0  0  0  0
    1.6573    1.1446    0.0000 C   0  0  0  0  0  0  0  0  0  0  0  0
    0.0073    1.1446    0.0000 C   0  0  0  0  0  0  0  0  0  0  0  0
    0.8323    1.9696    0.0000 C   0  0  0  0  0  0  0  0  0  0  0  0
    1.6573    1.9696    0.0000 C   0  0  0  0  0  0  0  0  0  0  0  0
    0.0073    1.9696    0.0000 C   0  0  0  0  0  0  0  0  0  0  0  0
    0.8323    2.7946    0.0000 C   0  0  0  0  0  0  0  0  0  0  0  0
    0.8323    3.6196    0.0000 C   0  0  0  0  0  0  0  0  0  0  0  0
    1.6573    2.7946    0.0000 C   0  0  0  0  0  0  0  0  0  0  0  0
    0.0073    2.7946    0.0000 S   0  0  0  0  0  0  0  0  0  0  0  0
   -0.2947    0.6215    0.0000 H   0  0  0  0  0  0  0  0  0  0  0  0
   -0.5966   -0.5054    0.0000 H   0  0  0  0  0  0  0  0  0  0  0  0
    0.5303   -0.8074    0.0000 H   0  0  0  0  0  0  0  0  0  0  0  0
    0.8323   -0.5054    0.0000 H   0  0  0  0  0  0  0  0  0  0  0  0
    1.7603   -0.8898    0.0000 H   0  0  0  0  0  0  0  0  0  0  0  0
    2.3718   -0.0929    0.0000 H   0  0  0  0  0  0  0  0  0  0  0  0
    1.7603    0.7040    0.0000 H   0  0  0  0  0  0  0  0  0  0  0  0
    2.4263    0.8458    0.0000 H   0  0  0  0  0  0  0  0  0  0  0  0
    2.3381    1.6105    0.0000 H   0  0  0  0  0  0  0  0  0  0  0  0
    1.1446    0.4982    0.0000 H   0  0  0  0  0  0  0  0  0  0  0  0
   -0.6247    1.6749    0.0000 H   0  0  0  0  0  0  0  0  0  0  0  0
   -0.8052    1.0013    0.0000 H   0  0  0  0  0  0  0  0  0  0  0  0
    0.4198    0.4301    0.0000 H   0  0  0  0  0  0  0  0  0  0  0  0
    2.4659    2.1335    0.0000 H   0  0  0  0  0  0  0  0  0  0  0  0
    2.1795    2.6083    0.0000 H   0  0  0  0  0  0  0  0  0  0  0  0
    1.0739    1.3862    0.0000 H   0  0  0  0  0  0  0  0  0  0  0  0
   -0.5044    2.6167    0.0000 H   0  0  0  0  0  0  0  0  0  0  0  0
   -0.7954    2.1598    0.0000 H   0  0  0  0  0  0  0  0  0  0  0  0
    0.5907    1.3862    0.0000 H   0  0  0  0  0  0  0  0  0  0  0  0
    1.6573    3.6196    0.0000 H   0  0  0  0  0  0  0  0  0  0  0  0
    0.8323    4.4446    0.0000 H   0  0  0  0  0  0  0  0  0  0  0  0
    0.0073    3.6196    0.0000 H   0  0  0  0  0  0  0  0  0  0  0  0
    2.3316    3.2699    0.0000 H   0  0  0  0  0  0  0  0  0  0  0  0
    1.0739    2.2112    0.0000 H   0  0  0  0  0  0  0  0  0  0  0  0
    1.0739    3.3779    0.0000 H   0  0  0  0  0  0  0  0  0  0  0  0
   -0.6650    3.2727    0.0000 H   0  0  0  0  0  0  0  0  0  0  0  0
  1  2  1  0  0  0  0
  2  3  1  0  0  0  0
  2  4  1  0  0  0  0
  4  5  1  0  0  0  0
  4  6  1  0  0  0  0
  4  7  1  0  0  0  0
  7  8  1  0  0  0  0
  7  9  1  0  0  0  0
  7 10  1  0  0  0  0
 10 11  1  0  0  0  0
 10 12  1  0  0  0  0
 10 13  1  0  0  0  0
  1 14  1  0  0  0  0
  1 15  1  0  0  0  0
  1 16  1  0  0  0  0
  2 17  1  0  0  0  0
  3 18  1  0  0  0  0
  3 19  1  0  0  0  0
  3 20  1  0  0  0  0
  5 21  1  0  0  0  0
  5 22  1  0  0  0  0
  5 23  1  0  0  0  0
  6 24  1  0  0  0  0
  6 25  1  0  0  0  0
  6 26  1  0  0  0  0
  8 27  1  0  0  0  0
  8 28  1  0  0  0  0
  8 29  1  0  0  0  0
  9 30  1  0  0  0  0
  9 31  1  0  0  0  0
  9 32  1  0  0  0  0
 11 33  1  0  0  0  0
 11 34  1  0  0  0  0
 11 35  1  0  0  0  0
 12 36  1  0  0  0  0
 12 37  1  0  0  0  0
 12 38  1  0  0  0  0
 13 39  1  0  0  0  0
M  END
>  <id_input>
2574

>  <InChIKey>
YAJYJWXEWKRTPO-UHFFFAOYSA-N

>  <substance_name>
2-methylundecane-2-thiol

>  <casrn>
25103-58-6

>  <Molecular weight>
202.39984130859375

>  <guideline>
OECD Guideline 404 (Acute Dermal Irritation / Corrosion)

>  <species>
rabbit

>  <type_of_coverage>
semiocclusive

>  <max_duration(hrs)>
4.0

>  <vehicle>
unchanged (no vehicle)

>  <edema/ erythema score>
3.0

>  <max_score>
3.0

>  <reversibility>
1.0

>  <Outcome>
1

>  <StandardizerResult>
Remove Explicit Hydrogens (ID: RemoveExplicitH)
Clear Stereo (ID: ClearStereo)
Wedge Clean (ID: WedgeClean)
Mesomerize (ID: Mesomerize)
Tautomerize (ID: Tautomerize)
Add Explicit Hydrogens (ID: AddExplicitH)
Neutralize (ID: Neutralize)
Clean 2D (ID: Clean2D)


$$$$

  Mrv1812 02121911042D          

 16 15  0  0  0  0            999 V2000
    0.7574   -0.5096    0.0000 C   0  0  0  0  0  0  0  0  0  0  0  0
    0.7574    0.3154    0.0000 C   0  0  0  0  0  0  0  0  0  0  0  0
    0.7574    1.1404    0.0000 C   0  0  0  0  0  0  0  0  0  0  0  0
    1.5824    0.3154    0.0000 C   0  0  0  0  0  0  0  0  0  0  0  0
   -0.0676    0.3154    0.0000 N   0  0  0  0  0  0  0  0  0  0  0  0
   -0.0676   -0.5096    0.0000 H   0  0  0  0  0  0  0  0  0  0  0  0
    0.7574   -1.3346    0.0000 H   0  0  0  0  0  0  0  0  0  0  0  0
    1.5824   -0.5096    0.0000 H   0  0  0  0  0  0  0  0  0  0  0  0
    1.5824    1.1404    0.0000 H   0  0  0  0  0  0  0  0  0  0  0  0
    0.7574    1.9654    0.0000 H   0  0  0  0  0  0  0  0  0  0  0  0
   -0.0676    1.1404    0.0000 H   0  0  0  0  0  0  0  0  0  0  0  0
    2.1658   -0.2680    0.0000 H   0  0  0  0  0  0  0  0  0  0  0  0
    2.4074    0.3154    0.0000 H   0  0  0  0  0  0  0  0  0  0  0  0
    2.1658    0.8988    0.0000 H   0  0  0  0  0  0  0  0  0  0  0  0
   -0.8428    0.5976    0.0000 H   0  0  0  0  0  0  0  0  0  0  0  0
   -0.8428    0.0332    0.0000 H   0  0  0  0  0  0  0  0  0  0  0  0
  1  2  1  0  0  0  0
  2  3  1  0  0  0  0
  2  4  1  0  0  0  0
  2  5  1  0  0  0  0
  1  6  1  0  0  0  0
  1  7  1  0  0  0  0
  1  8  1  0  0  0  0
  3  9  1  0  0  0  0
  3 10  1  0  0  0  0
  3 11  1  0  0  0  0
  4 12  1  0  0  0  0
  4 13  1  0  0  0  0
  4 14  1  0  0  0  0
  5 15  1  0  0  0  0
  5 16  1  0  0  0  0
M  END
>  <id_input>
2566

>  <InChIKey>
YBRBMKDOPFTVDT-UHFFFAOYSA-N

>  <substance_name>
2-methylpropan-2-amine

>  <casrn>
75-64-9

>  <Molecular weight>
73.1368408203125

>  <guideline>
OECD Guideline 404 (Acute Dermal Irritation / Corrosion)

>  <species>
rabbit

>  <type_of_coverage>
semiocclusive

>  <max_duration(hrs)>
0.05

>  <vehicle>
unchanged (no vehicle)

>  <edema/ erythema score>
4.0

>  <max_score>
4.0

>  <reversibility>
1.0

>  <Outcome>
1

>  <StandardizerResult>
Remove Explicit Hydrogens (ID: RemoveExplicitH)
Clear Stereo (ID: ClearStereo)
Wedge Clean (ID: WedgeClean)
Mesomerize (ID: Mesomerize)
Tautomerize (ID: Tautomerize)
Add Explicit Hydrogens (ID: AddExplicitH)
Neutralize (ID: Neutralize)
Clean 2D (ID: Clean2D)


$$$$

  Mrv1812 02121911042D          

 18 18  0  0  0  0            999 V2000
    0.5598    0.7700    0.0000 C   0  0  0  0  0  0  0  0  0  0  0  0
   -0.1547    1.1825    0.0000 C   0  0  0  0  0  0  0  0  0  0  0  0
   -0.8692    0.7700    0.0000 C   0  0  0  0  0  0  0  0  0  0  0  0
   -0.8692   -0.0550    0.0000 C   0  0  0  0  0  0  0  0  0  0  0  0
   -0.1547   -0.4675    0.0000 C   0  0  0  0  0  0  0  0  0  0  0  0
    0.5598   -0.0550    0.0000 C   0  0  0  0  0  0  0  0  0  0  0  0
    1.2742   -0.4675    0.0000 C   0  0  0  0  0  0  0  0  0  0  0  0
    1.2742   -1.2925    0.0000 O   0  0  0  0  0  0  0  0  0  0  0  0
    1.9887   -0.0550    0.0000 C   0  0  0  0  0  0  0  0  0  0  0  0
    2.7032   -0.4675    0.0000 Cl  0  0  0  0  0  0  0  0  0  0  0  0
   -1.5836   -0.4675    0.0000 Cl  0  0  0  0  0  0  0  0  0  0  0  0
   -1.5836    1.1825    0.0000 O   0  0  0  0  0  0  0  0  0  0  0  0
    1.2742    1.1825    0.0000 H   0  0  0  0  0  0  0  0  0  0  0  0
   -0.1547    2.0075    0.0000 H   0  0  0  0  0  0  0  0  0  0  0  0
   -0.1547   -1.2925    0.0000 H   0  0  0  0  0  0  0  0  0  0  0  0
    2.3590    0.6823    0.0000 H   0  0  0  0  0  0  0  0  0  0  0  0
    1.6185    0.6823    0.0000 H   0  0  0  0  0  0  0  0  0  0  0  0
   -1.5836    2.0075    0.0000 H   0  0  0  0  0  0  0  0  0  0  0  0
  2  1  4  0  0  0  0
  3  2  4  0  0  0  0
  4  3  4  0  0  0  0
  5  4  4  0  0  0  0
  6  5  4  0  0  0  0
  6  7  1  0  0  0  0
  7  8  2  0  0  0  0
  7  9  1  0  0  0  0
  9 10  1  0  0  0  0
  4 11  1  0  0  0  0
  3 12  1  0  0  0  0
  1  6  4  0  0  0  0
  1 13  1  0  0  0  0
  2 14  1  0  0  0  0
  5 15  1  0  0  0  0
  9 16  1  0  0  0  0
  9 17  1  0  0  0  0
 12 18  1  0  0  0  0
M  END
>  <id_input>
747

>  <InChIKey>
YCAQBCPDPOPUMU-UHFFFAOYSA-N

>  <substance_name>
-

>  <casrn>
39066-18-7

>  <Molecular weight>
205.0380401611328

>  <guideline>
OECD Guideline 404 (Acute Dermal Irritation / Corrosion)

>  <species>
rabbit

>  <type_of_coverage>
semiocclusive

>  <max_duration(hrs)>
4.0

>  <vehicle>
physiological saline

>  <edema/ erythema score>
1.55666666666666

>  <max_score>
4.0

>  <reversibility>
0.0

>  <Outcome>
1

>  <StandardizerResult>
Remove Explicit Hydrogens (ID: RemoveExplicitH)
Dearomatize (ID: Dearomatize)
Clear Stereo (ID: ClearStereo)
Wedge Clean (ID: WedgeClean)
Mesomerize (ID: Mesomerize)
Tautomerize (ID: Tautomerize)
Aromatize (ID: Aromatize)
Add Explicit Hydrogens (ID: AddExplicitH)
Neutralize (ID: Neutralize)
Clean 2D (ID: Clean2D)


$$$$

  Mrv1812 02121911042D          

 42 43  0  0  0  0            999 V2000
   -3.1740    1.7610    0.0000 C   0  0  0  0  0  0  0  0  0  0  0  0
   -3.1740    0.9360    0.0000 C   0  0  0  0  0  0  0  0  0  0  0  0
   -3.8885    0.5235    0.0000 C   0  0  0  0  0  0  0  0  0  0  0  0
   -4.6029    0.9360    0.0000 O   0  0  0  0  0  0  0  0  0  0  0  0
   -2.4595    0.5235    0.0000 C   0  0  0  0  0  0  0  0  0  0  0  0
   -1.7451    0.9360    0.0000 O   0  0  0  0  0  0  0  0  0  0  0  0
   -1.0306    0.5235    0.0000 C   0  0  0  0  0  0  0  0  0  0  0  0
   -0.3161    0.9360    0.0000 C   0  0  0  0  0  0  0  0  0  0  0  0
    0.3984    0.5235    0.0000 C   0  0  0  0  0  0  0  0  0  0  0  0
    0.3984   -0.3015    0.0000 C   0  0  0  0  0  0  0  0  0  0  0  0
   -0.3161   -0.7140    0.0000 C   0  0  0  0  0  0  0  0  0  0  0  0
   -1.0306   -0.3015    0.0000 C   0  0  0  0  0  0  0  0  0  0  0  0
   -0.4192    0.2896    0.0000 C   0  0  0  0  0  0  0  0  0  0  0  0
   -1.0194    0.8557    0.0000 C   0  0  0  0  0  0  0  0  0  0  0  0
   -0.6093    1.0924    0.0000 C   0  0  0  0  0  0  0  0  0  0  0  0
   -1.7451   -0.7140    0.0000 C   0  0  0  0  0  0  0  0  0  0  0  0
   -2.3490    1.7610    0.0000 H   0  0  0  0  0  0  0  0  0  0  0  0
   -3.1740    2.5860    0.0000 H   0  0  0  0  0  0  0  0  0  0  0  0
   -3.9990    1.7610    0.0000 H   0  0  0  0  0  0  0  0  0  0  0  0
   -3.8885    1.3485    0.0000 H   0  0  0  0  0  0  0  0  0  0  0  0
   -4.2587   -0.2137    0.0000 H   0  0  0  0  0  0  0  0  0  0  0  0
   -3.5182   -0.2137    0.0000 H   0  0  0  0  0  0  0  0  0  0  0  0
   -5.4279    0.9360    0.0000 H   0  0  0  0  0  0  0  0  0  0  0  0
   -2.8298   -0.2137    0.0000 H   0  0  0  0  0  0  0  0  0  0  0  0
   -2.0893   -0.2137    0.0000 H   0  0  0  0  0  0  0  0  0  0  0  0
   -1.7451    0.1110    0.0000 H   0  0  0  0  0  0  0  0  0  0  0  0
    0.3089    1.4745    0.0000 H   0  0  0  0  0  0  0  0  0  0  0  0
   -0.1895    1.7513    0.0000 H   0  0  0  0  0  0  0  0  0  0  0  0
    1.2225    0.5622    0.0000 H   0  0  0  0  0  0  0  0  0  0  0  0
    0.8517   -0.9907    0.0000 H   0  0  0  0  0  0  0  0  0  0  0  0
    1.2220   -0.3494    0.0000 H   0  0  0  0  0  0  0  0  0  0  0  0
   -0.6864   -1.4512    0.0000 H   0  0  0  0  0  0  0  0  0  0  0  0
    0.0541   -1.4512    0.0000 H   0  0  0  0  0  0  0  0  0  0  0  0
   -0.6828    1.6089    0.0000 H   0  0  0  0  0  0  0  0  0  0  0  0
   -1.1887    1.6631    0.0000 H   0  0  0  0  0  0  0  0  0  0  0  0
   -1.6302    1.4103    0.0000 H   0  0  0  0  0  0  0  0  0  0  0  0
   -0.4350    1.8988    0.0000 H   0  0  0  0  0  0  0  0  0  0  0  0
    0.1886    1.3019    0.0000 H   0  0  0  0  0  0  0  0  0  0  0  0
   -1.3512    1.4535    0.0000 H   0  0  0  0  0  0  0  0  0  0  0  0
   -2.5552   -0.8699    0.0000 H   0  0  0  0  0  0  0  0  0  0  0  0
   -1.9269   -1.5187    0.0000 H   0  0  0  0  0  0  0  0  0  0  0  0
   -1.0807   -1.2032    0.0000 H   0  0  0  0  0  0  0  0  0  0  0  0
  1  2  1  0  0  0  0
  2  3  1  0  0  0  0
  3  4  1  0  0  0  0
  2  5  1  0  0  0  0
  5  6  1  0  0  0  0
  6  7  1  0  0  0  0
  8  7  1  0  0  0  0
  9  8  1  0  0  0  0
  9 10  1  0  0  0  0
 10 11  1  0  0  0  0
 11 12  1  0  0  0  0
 12 13  1  0  0  0  0
 13 14  1  0  0  0  0
 13 15  1  0  0  0  0
 12 16  1  0  0  0  0
  7 12  1  0  0  0  0
 13  9  1  0  0  0  0
  1 17  1  0  0  0  0
  1 18  1  0  0  0  0
  1 19  1  0  0  0  0
  2 20  1  0  0  0  0
  3 21  1  0  0  0  0
  3 22  1  0  0  0  0
  4 23  1  0  0  0  0
  5 24  1  0  0  0  0
  5 25  1  0  0  0  0
  7 26  1  0  0  0  0
  8 27  1  0  0  0  0
  8 28  1  0  0  0  0
  9 29  1  0  0  0  0
 10 30  1  0  0  0  0
 10 31  1  0  0  0  0
 11 32  1  0  0  0  0
 11 33  1  0  0  0  0
 14 34  1  0  0  0  0
 14 35  1  0  0  0  0
 14 36  1  0  0  0  0
 15 37  1  0  0  0  0
 15 38  1  0  0  0  0
 15 39  1  0  0  0  0
 16 40  1  0  0  0  0
 16 41  1  0  0  0  0
 16 42  1  0  0  0  0
M  END
>  <id_input>
5289

>  <InChIKey>
YCOHHRPARVZBHK-UHFFFAOYSA-N

>  <substance_name>
unnamed [128119-70-0]

>  <casrn>
128119-70-0

>  <Molecular weight>
226.35504150390625

>  <guideline>
EU Method B.4 (Acute Toxicity: Dermal Irritation / Corrosion)

>  <species>
rabbit

>  <type_of_coverage>
semiocclusive

>  <max_duration(hrs)>
4.0

>  <vehicle>
unchanged (no vehicle)

>  <edema/ erythema score>
1.77799999999999

>  <reversibility>
0.0

>  <Outcome>
1

>  <StandardizerResult>
Remove Explicit Hydrogens (ID: RemoveExplicitH)
Clear Stereo (ID: ClearStereo)
Wedge Clean (ID: WedgeClean)
Mesomerize (ID: Mesomerize)
Tautomerize (ID: Tautomerize)
Add Explicit Hydrogens (ID: AddExplicitH)
Neutralize (ID: Neutralize)
Clean 2D (ID: Clean2D)


$$$$

  Mrv1812 02121911042D          

 76 75  0  0  0  0            999 V2000
    5.4695   -1.5288    0.0000 C   0  0  0  0  0  0  0  0  0  0  0  0
    5.4695   -0.7038    0.0000 C   0  0  0  0  0  0  0  0  0  0  0  0
    6.1839   -0.2913    0.0000 C   0  0  0  0  0  0  0  0  0  0  0  0
    4.7550   -0.2913    0.0000 C   0  0  0  0  0  0  0  0  0  0  0  0
    4.7550    0.5337    0.0000 C   0  0  0  0  0  0  0  0  0  0  0  0
    4.0405    0.9462    0.0000 C   0  0  0  0  0  0  0  0  0  0  0  0
    4.0405    1.7712    0.0000 C   0  0  0  0  0  0  0  0  0  0  0  0
    3.3260    2.1837    0.0000 C   0  0  0  0  0  0  0  0  0  0  0  0
    3.3260    3.0087    0.0000 N   0  0  0  0  0  0  0  0  0  0  0  0
    2.6116    3.4212    0.0000 C   0  0  0  0  0  0  0  0  0  0  0  0
    2.6116    4.2462    0.0000 C   0  0  0  0  0  0  0  0  0  0  0  0
    1.8971    4.6587    0.0000 C   0  0  0  0  0  0  0  0  0  0  0  0
    1.8971    5.4837    0.0000 C   0  0  0  0  0  0  0  0  0  0  0  0
    1.1826    5.8962    0.0000 C   0  0  0  0  0  0  0  0  0  0  0  0
    1.1826    6.7212    0.0000 C   0  0  0  0  0  0  0  0  0  0  0  0
    0.4682    7.1337    0.0000 C   0  0  0  0  0  0  0  0  0  0  0  0
    1.8971    7.1337    0.0000 C   0  0  0  0  0  0  0  0  0  0  0  0
    4.0405    3.4212    0.0000 C   0  0  0  0  0  0  0  0  0  0  0  0
    4.0405    4.2462    0.0000 C   0  0  0  0  0  0  0  0  0  0  0  0
    4.7550    4.6587    0.0000 C   0  0  0  0  0  0  0  0  0  0  0  0
    4.7550    5.4837    0.0000 C   0  0  0  0  0  0  0  0  0  0  0  0
    5.4695    5.8962    0.0000 C   0  0  0  0  0  0  0  0  0  0  0  0
    5.4695    6.7212    0.0000 C   0  0  0  0  0  0  0  0  0  0  0  0
    4.7550    7.1337    0.0000 C   0  0  0  0  0  0  0  0  0  0  0  0
    6.1839    7.1337    0.0000 C   0  0  0  0  0  0  0  0  0  0  0  0
    4.6445   -1.5288    0.0000 H   0  0  0  0  0  0  0  0  0  0  0  0
    5.4695   -2.3538    0.0000 H   0  0  0  0  0  0  0  0  0  0  0  0
    6.2945   -1.5288    0.0000 H   0  0  0  0  0  0  0  0  0  0  0  0
    6.1839   -1.1163    0.0000 H   0  0  0  0  0  0  0  0  0  0  0  0
    6.9808   -0.5048    0.0000 H   0  0  0  0  0  0  0  0  0  0  0  0
    6.5964    0.4232    0.0000 H   0  0  0  0  0  0  0  0  0  0  0  0
    5.6006    0.2921    0.0000 H   0  0  0  0  0  0  0  0  0  0  0  0
    3.9314   -0.3392    0.0000 H   0  0  0  0  0  0  0  0  0  0  0  0
    4.3016   -0.9805    0.0000 H   0  0  0  0  0  0  0  0  0  0  0  0
    5.0770    1.2933    0.0000 H   0  0  0  0  0  0  0  0  0  0  0  0
    4.0405    0.1212    0.0000 H   0  0  0  0  0  0  0  0  0  0  0  0
    3.2653    1.2284    0.0000 H   0  0  0  0  0  0  0  0  0  0  0  0
    3.2653    0.6641    0.0000 H   0  0  0  0  0  0  0  0  0  0  0  0
    4.8641    1.8192    0.0000 H   0  0  0  0  0  0  0  0  0  0  0  0
    4.4939    2.4605    0.0000 H   0  0  0  0  0  0  0  0  0  0  0  0
    2.6205    2.6113    0.0000 H   0  0  0  0  0  0  0  0  0  0  0  0
    2.5947    1.8019    0.0000 H   0  0  0  0  0  0  0  0  0  0  0  0
    1.8351    3.7001    0.0000 H   0  0  0  0  0  0  0  0  0  0  0  0
    1.8382    3.1339    0.0000 H   0  0  0  0  0  0  0  0  0  0  0  0
    3.4352    4.2942    0.0000 H   0  0  0  0  0  0  0  0  0  0  0  0
    3.0649    4.9355    0.0000 H   0  0  0  0  0  0  0  0  0  0  0  0
    1.1917    5.0865    0.0000 H   0  0  0  0  0  0  0  0  0  0  0  0
    1.1655    4.2774    0.0000 H   0  0  0  0  0  0  0  0  0  0  0  0
    2.7207    5.5317    0.0000 H   0  0  0  0  0  0  0  0  0  0  0  0
    2.3504    6.1730    0.0000 H   0  0  0  0  0  0  0  0  0  0  0  0
    0.4062    6.1750    0.0000 H   0  0  0  0  0  0  0  0  0  0  0  0
    0.4093    5.6088    0.0000 H   0  0  0  0  0  0  0  0  0  0  0  0
    1.8971    6.3087    0.0000 H   0  0  0  0  0  0  0  0  0  0  0  0
    1.0609    7.7076    0.0000 H   0  0  0  0  0  0  0  0  0  0  0  0
    0.0789    7.8612    0.0000 H   0  0  0  0  0  0  0  0  0  0  0  0
   -0.3381    6.9590    0.0000 H   0  0  0  0  0  0  0  0  0  0  0  0
    2.6940    6.9202    0.0000 H   0  0  0  0  0  0  0  0  0  0  0  0
    2.3096    7.8482    0.0000 H   0  0  0  0  0  0  0  0  0  0  0  0
    1.3137    7.7171    0.0000 H   0  0  0  0  0  0  0  0  0  0  0  0
    4.4939    2.7320    0.0000 H   0  0  0  0  0  0  0  0  0  0  0  0
    4.8641    3.3733    0.0000 H   0  0  0  0  0  0  0  0  0  0  0  0
    3.8587    5.0509    0.0000 H   0  0  0  0  0  0  0  0  0  0  0  0
    4.7550    3.8337    0.0000 H   0  0  0  0  0  0  0  0  0  0  0  0
    5.5302    4.3766    0.0000 H   0  0  0  0  0  0  0  0  0  0  0  0
    5.5302    4.9409    0.0000 H   0  0  0  0  0  0  0  0  0  0  0  0
    4.3016    6.1730    0.0000 H   0  0  0  0  0  0  0  0  0  0  0  0
    3.9314    5.5317    0.0000 H   0  0  0  0  0  0  0  0  0  0  0  0
    6.2007    5.5144    0.0000 H   0  0  0  0  0  0  0  0  0  0  0  0
    6.1750    6.3238    0.0000 H   0  0  0  0  0  0  0  0  0  0  0  0
    4.7550    6.3087    0.0000 H   0  0  0  0  0  0  0  0  0  0  0  0
    5.3383    7.7171    0.0000 H   0  0  0  0  0  0  0  0  0  0  0  0
    4.3425    7.8482    0.0000 H   0  0  0  0  0  0  0  0  0  0  0  0
    3.9581    6.9202    0.0000 H   0  0  0  0  0  0  0  0  0  0  0  0
    6.9790    6.9137    0.0000 H   0  0  0  0  0  0  0  0  0  0  0  0
    6.6003    7.8459    0.0000 H   0  0  0  0  0  0  0  0  0  0  0  0
    5.6022    7.7187    0.0000 H   0  0  0  0  0  0  0  0  0  0  0  0
  1  2  1  0  0  0  0
  2  3  1  0  0  0  0
  2  4  1  0  0  0  0
  4  5  1  0  0  0  0
  5  6  1  0  0  0  0
  6  7  1  0  0  0  0
  7  8  1  0  0  0  0
  8  9  1  0  0  0  0
  9 10  1  0  0  0  0
 10 11  1  0  0  0  0
 11 12  1  0  0  0  0
 12 13  1  0  0  0  0
 13 14  1  0  0  0  0
 14 15  1  0  0  0  0
 15 16  1  0  0  0  0
 15 17  1  0  0  0  0
  9 18  1  0  0  0  0
 18 19  1  0  0  0  0
 19 20  1  0  0  0  0
 20 21  1  0  0  0  0
 21 22  1  0  0  0  0
 22 23  1  0  0  0  0
 23 24  1  0  0  0  0
 23 25  1  0  0  0  0
  1 26  1  0  0  0  0
  1 27  1  0  0  0  0
  1 28  1  0  0  0  0
  2 29  1  0  0  0  0
  3 30  1  0  0  0  0
  3 31  1  0  0  0  0
  3 32  1  0  0  0  0
  4 33  1  0  0  0  0
  4 34  1  0  0  0  0
  5 35  1  0  0  0  0
  5 36  1  0  0  0  0
  6 37  1  0  0  0  0
  6 38  1  0  0  0  0
  7 39  1  0  0  0  0
  7 40  1  0  0  0  0
  8 41  1  0  0  0  0
  8 42  1  0  0  0  0
 10 43  1  0  0  0  0
 10 44  1  0  0  0  0
 11 45  1  0  0  0  0
 11 46  1  0  0  0  0
 12 47  1  0  0  0  0
 12 48  1  0  0  0  0
 13 49  1  0  0  0  0
 13 50  1  0  0  0  0
 14 51  1  0  0  0  0
 14 52  1  0  0  0  0
 15 53  1  0  0  0  0
 16 54  1  0  0  0  0
 16 55  1  0  0  0  0
 16 56  1  0  0  0  0
 17 57  1  0  0  0  0
 17 58  1  0  0  0  0
 17 59  1  0  0  0  0
 18 60  1  0  0  0  0
 18 61  1  0  0  0  0
 19 62  1  0  0  0  0
 19 63  1  0  0  0  0
 20 64  1  0  0  0  0
 20 65  1  0  0  0  0
 21 66  1  0  0  0  0
 21 67  1  0  0  0  0
 22 68  1  0  0  0  0
 22 69  1  0  0  0  0
 23 70  1  0  0  0  0
 24 71  1  0  0  0  0
 24 72  1  0  0  0  0
 24 73  1  0  0  0  0
 25 74  1  0  0  0  0
 25 75  1  0  0  0  0
 25 76  1  0  0  0  0
M  END
>  <id_input>
5177

>  <InChIKey>
YKGBNAGNNUEZQC-UHFFFAOYSA-N

>  <substance_name>
tris(6-methylheptyl)amine

>  <casrn>
25549-16-0

>  <Molecular weight>
353.66845703125

>  <guideline>
OECD Guideline 404 (Acute Dermal Irritation / Corrosion)

>  <species>
rabbit

>  <type_of_coverage>
semiocclusive

>  <max_duration(hrs)>
4.0

>  <vehicle>
unchanged (no vehicle)

>  <edema/ erythema score>
3.5

>  <reversibility>
1.0

>  <Outcome>
1

>  <StandardizerResult>
Remove Explicit Hydrogens (ID: RemoveExplicitH)
Clear Stereo (ID: ClearStereo)
Wedge Clean (ID: WedgeClean)
Mesomerize (ID: Mesomerize)
Tautomerize (ID: Tautomerize)
Add Explicit Hydrogens (ID: AddExplicitH)
Neutralize (ID: Neutralize)
Clean 2D (ID: Clean2D)


$$$$

  Mrv1812 02121911042D          

 79 78  0  0  0  0            999 V2000
   -5.5068    0.5285    0.0000 C   0  0  0  0  0  0  0  0  0  0  0  0
   -5.0151   -0.1339    0.0000 C   0  0  0  0  0  0  0  0  0  0  0  0
   -4.1955   -0.0393    0.0000 C   0  0  0  0  0  0  0  0  0  0  0  0
   -3.7038   -0.7017    0.0000 C   0  0  0  0  0  0  0  0  0  0  0  0
   -2.8842   -0.6071    0.0000 C   0  0  0  0  0  0  0  0  0  0  0  0
   -2.3925   -1.2695    0.0000 C   0  0  0  0  0  0  0  0  0  0  0  0
   -1.5729   -1.1749    0.0000 C   0  0  0  0  0  0  0  0  0  0  0  0
   -1.0812   -1.8373    0.0000 C   0  0  0  0  0  0  0  0  0  0  0  0
   -0.2616   -1.7427    0.0000 C   0  0  0  0  0  0  0  0  0  0  0  0
    0.2301   -2.4051    0.0000 C   0  0  0  0  0  0  0  0  0  0  0  0
    1.0496   -2.3105    0.0000 C   0  0  0  0  0  0  0  0  0  0  0  0
    1.5414   -2.9729    0.0000 C   0  0  0  0  0  0  0  0  0  0  0  0
    2.3609   -2.8783    0.0000 C   0  0  0  0  0  0  0  0  0  0  0  0
    2.8527   -3.5407    0.0000 C   0  0  0  0  0  0  0  0  0  0  0  0
    3.6722   -3.4461    0.0000 C   0  0  0  0  0  0  0  0  0  0  0  0
    4.1640   -4.1085    0.0000 C   0  0  0  0  0  0  0  0  0  0  0  0
    4.9835   -4.0139    0.0000 C   0  0  0  0  0  0  0  0  0  0  0  0
    5.4752   -4.6763    0.0000 C   0  0  0  0  0  0  0  0  0  0  0  0
    5.1474   -5.4334    0.0000 O   0  0  0  0  0  0  0  0  0  0  0  0
    6.2948   -4.5817    0.0000 N   0  0  0  0  0  0  0  0  0  0  0  0
    6.7865   -5.2441    0.0000 C   0  0  0  0  0  0  0  0  0  0  0  0
    7.6061   -5.1495    0.0000 C   0  0  0  0  0  0  0  0  0  0  0  0
    8.0978   -5.8120    0.0000 C   0  0  0  0  0  0  0  0  0  0  0  0
    8.9174   -5.7173    0.0000 C   0  0  0  0  0  0  0  0  0  0  0  0
    6.6226   -3.8246    0.0000 C   0  0  0  0  0  0  0  0  0  0  0  0
    7.4422   -3.7300    0.0000 C   0  0  0  0  0  0  0  0  0  0  0  0
    7.7700   -2.9729    0.0000 C   0  0  0  0  0  0  0  0  0  0  0  0
    8.5895   -2.8783    0.0000 C   0  0  0  0  0  0  0  0  0  0  0  0
   -4.8443    1.0203    0.0000 H   0  0  0  0  0  0  0  0  0  0  0  0
   -5.9985    1.1910    0.0000 H   0  0  0  0  0  0  0  0  0  0  0  0
   -6.1692    0.0368    0.0000 H   0  0  0  0  0  0  0  0  0  0  0  0
   -5.6478   -0.6633    0.0000 H   0  0  0  0  0  0  0  0  0  0  0  0
   -4.9682   -0.9576    0.0000 H   0  0  0  0  0  0  0  0  0  0  0  0
   -3.5628    0.4901    0.0000 H   0  0  0  0  0  0  0  0  0  0  0  0
   -4.2423    0.7844    0.0000 H   0  0  0  0  0  0  0  0  0  0  0  0
   -4.3365   -1.2311    0.0000 H   0  0  0  0  0  0  0  0  0  0  0  0
   -3.6569   -1.5254    0.0000 H   0  0  0  0  0  0  0  0  0  0  0  0
   -2.2515   -0.0777    0.0000 H   0  0  0  0  0  0  0  0  0  0  0  0
   -2.9310    0.2166    0.0000 H   0  0  0  0  0  0  0  0  0  0  0  0
   -3.0252   -1.7989    0.0000 H   0  0  0  0  0  0  0  0  0  0  0  0
   -2.3457   -2.0932    0.0000 H   0  0  0  0  0  0  0  0  0  0  0  0
   -0.9402   -0.6455    0.0000 H   0  0  0  0  0  0  0  0  0  0  0  0
   -1.6197   -0.3512    0.0000 H   0  0  0  0  0  0  0  0  0  0  0  0
   -1.7139   -2.3667    0.0000 H   0  0  0  0  0  0  0  0  0  0  0  0
   -1.0344   -2.6610    0.0000 H   0  0  0  0  0  0  0  0  0  0  0  0
    0.0662   -0.9856    0.0000 H   0  0  0  0  0  0  0  0  0  0  0  0
   -0.0977   -3.1622    0.0000 H   0  0  0  0  0  0  0  0  0  0  0  0
    1.6824   -1.7811    0.0000 H   0  0  0  0  0  0  0  0  0  0  0  0
    1.0028   -1.4868    0.0000 H   0  0  0  0  0  0  0  0  0  0  0  0
    0.9087   -3.5024    0.0000 H   0  0  0  0  0  0  0  0  0  0  0  0
    1.5882   -3.7966    0.0000 H   0  0  0  0  0  0  0  0  0  0  0  0
    2.9937   -2.3489    0.0000 H   0  0  0  0  0  0  0  0  0  0  0  0
    2.3141   -2.0546    0.0000 H   0  0  0  0  0  0  0  0  0  0  0  0
    2.2199   -4.0702    0.0000 H   0  0  0  0  0  0  0  0  0  0  0  0
    2.8995   -4.3644    0.0000 H   0  0  0  0  0  0  0  0  0  0  0  0
    4.3049   -2.9167    0.0000 H   0  0  0  0  0  0  0  0  0  0  0  0
    3.6254   -2.6224    0.0000 H   0  0  0  0  0  0  0  0  0  0  0  0
    3.5312   -4.6380    0.0000 H   0  0  0  0  0  0  0  0  0  0  0  0
    4.2108   -4.9322    0.0000 H   0  0  0  0  0  0  0  0  0  0  0  0
    5.6162   -3.4845    0.0000 H   0  0  0  0  0  0  0  0  0  0  0  0
    4.9367   -3.1902    0.0000 H   0  0  0  0  0  0  0  0  0  0  0  0
    6.1538   -5.7736    0.0000 H   0  0  0  0  0  0  0  0  0  0  0  0
    6.8333   -6.0678    0.0000 H   0  0  0  0  0  0  0  0  0  0  0  0
    8.2388   -4.6201    0.0000 H   0  0  0  0  0  0  0  0  0  0  0  0
    7.5593   -4.3258    0.0000 H   0  0  0  0  0  0  0  0  0  0  0  0
    7.4651   -6.3414    0.0000 H   0  0  0  0  0  0  0  0  0  0  0  0
    8.1446   -6.6356    0.0000 H   0  0  0  0  0  0  0  0  0  0  0  0
    9.0120   -6.5369    0.0000 H   0  0  0  0  0  0  0  0  0  0  0  0
    9.7369   -5.6227    0.0000 H   0  0  0  0  0  0  0  0  0  0  0  0
    8.8227   -4.8978    0.0000 H   0  0  0  0  0  0  0  0  0  0  0  0
    6.4805   -3.0120    0.0000 H   0  0  0  0  0  0  0  0  0  0  0  0
    5.8859   -3.4534    0.0000 H   0  0  0  0  0  0  0  0  0  0  0  0
    8.2624   -3.8184    0.0000 H   0  0  0  0  0  0  0  0  0  0  0  0
    6.9504   -3.0676    0.0000 H   0  0  0  0  0  0  0  0  0  0  0  0
    7.9614   -2.1704    0.0000 H   0  0  0  0  0  0  0  0  0  0  0  0
    7.4008   -2.2352    0.0000 H   0  0  0  0  0  0  0  0  0  0  0  0
    8.4867   -3.6969    0.0000 H   0  0  0  0  0  0  0  0  0  0  0  0
    9.3602   -3.1728    0.0000 H   0  0  0  0  0  0  0  0  0  0  0  0
    9.0588   -2.1997    0.0000 H   0  0  0  0  0  0  0  0  0  0  0  0
  1  2  1  0  0  0  0
  2  3  1  0  0  0  0
  3  4  1  0  0  0  0
  4  5  1  0  0  0  0
  5  6  1  0  0  0  0
  6  7  1  0  0  0  0
  7  8  1  0  0  0  0
  9  8  1  4  0  0  0
  9 10  2  0  0  0  0
 10 11  1  0  0  0  0
 11 12  1  0  0  0  0
 12 13  1  0  0  0  0
 13 14  1  0  0  0  0
 14 15  1  0  0  0  0
 15 16  1  0  0  0  0
 16 17  1  0  0  0  0
 17 18  1  0  0  0  0
 18 19  2  0  0  0  0
 18 20  1  0  0  0  0
 20 21  1  0  0  0  0
 21 22  1  0  0  0  0
 22 23  1  0  0  0  0
 23 24  1  0  0  0  0
 20 25  1  0  0  0  0
 25 26  1  0  0  0  0
 26 27  1  0  0  0  0
 27 28  1  0  0  0  0
  1 29  1  0  0  0  0
  1 30  1  0  0  0  0
  1 31  1  0  0  0  0
  2 32  1  0  0  0  0
  2 33  1  0  0  0  0
  3 34  1  0  0  0  0
  3 35  1  0  0  0  0
  4 36  1  0  0  0  0
  4 37  1  0  0  0  0
  5 38  1  0  0  0  0
  5 39  1  0  0  0  0
  6 40  1  0  0  0  0
  6 41  1  0  0  0  0
  7 42  1  0  0  0  0
  7 43  1  0  0  0  0
  8 44  1  0  0  0  0
  8 45  1  0  0  0  0
  9 46  1  0  0  0  0
 10 47  1  0  0  0  0
 11 48  1  0  0  0  0
 11 49  1  0  0  0  0
 12 50  1  0  0  0  0
 12 51  1  0  0  0  0
 13 52  1  0  0  0  0
 13 53  1  0  0  0  0
 14 54  1  0  0  0  0
 14 55  1  0  0  0  0
 15 56  1  0  0  0  0
 15 57  1  0  0  0  0
 16 58  1  0  0  0  0
 16 59  1  0  0  0  0
 17 60  1  0  0  0  0
 17 61  1  0  0  0  0
 21 62  1  0  0  0  0
 21 63  1  0  0  0  0
 22 64  1  0  0  0  0
 22 65  1  0  0  0  0
 23 66  1  0  0  0  0
 23 67  1  0  0  0  0
 24 68  1  0  0  0  0
 24 69  1  0  0  0  0
 24 70  1  0  0  0  0
 25 71  1  0  0  0  0
 25 72  1  0  0  0  0
 26 73  1  0  0  0  0
 26 74  1  0  0  0  0
 27 75  1  0  0  0  0
 27 76  1  0  0  0  0
 28 77  1  0  0  0  0
 28 78  1  0  0  0  0
 28 79  1  0  0  0  0
M  END
>  <id_input>
3404

>  <InChIKey>
YMGHPIVBMBXPCR-UHFFFAOYSA-N

>  <substance_name>
N,N-dibutyloctadec-9-enamide

>  <casrn>
5831-80-1

>  <Molecular weight>
393.6892395019531

>  <guideline>
OECD Guideline 404 (Acute Dermal Irritation / Corrosion)

>  <species>
rabbit

>  <type_of_coverage>
semiocclusive

>  <max_duration(hrs)>
4.0

>  <vehicle>
unchanged (no vehicle)

>  <edema/ erythema score>
2.0

>  <max_score>
3.0

>  <reversibility>
0.0

>  <Outcome>
1

>  <StandardizerResult>
Remove Explicit Hydrogens (ID: RemoveExplicitH)
Clear Stereo (ID: ClearStereo)
Wedge Clean (ID: WedgeClean)
Mesomerize (ID: Mesomerize)
Tautomerize (ID: Tautomerize)
Add Explicit Hydrogens (ID: AddExplicitH)
Neutralize (ID: Neutralize)
Clean 2D (ID: Clean2D)


$$$$

  Mrv1812 02121911042D          

 34 33  0  0  0  0            999 V2000
   -0.0363    0.3299    0.0000 C   0  0  0  0  0  0  0  0  0  0  0  0
    0.6781   -0.0826    0.0000 C   0  0  0  0  0  0  0  0  0  0  0  0
    1.3926    0.3299    0.0000 C   0  0  0  0  0  0  0  0  0  0  0  0
    2.1071   -0.0826    0.0000 C   0  0  0  0  0  0  0  0  0  0  0  0
    2.8216    0.3299    0.0000 C   0  0  0  0  0  0  0  0  0  0  0  0
    3.5360   -0.0826    0.0000 C   0  0  0  0  0  0  0  0  0  0  0  0
    4.2505    0.3299    0.0000 C   0  0  0  0  0  0  0  0  0  0  0  0
    4.9650   -0.0826    0.0000 C   0  0  0  0  0  0  0  0  0  0  0  0
    5.6794    0.3299    0.0000 C   0  0  0  0  0  0  0  0  0  0  0  0
    5.6794    1.1549    0.0000 O   0  0  0  0  0  0  0  0  0  0  0  0
    6.3939   -0.0826    0.0000 C   0  0  0  0  0  0  0  0  0  0  0  0
    7.1084    0.3299    0.0000 O   0  0  0  0  0  0  0  0  0  0  0  0
    0.3762    1.0443    0.0000 H   0  0  0  0  0  0  0  0  0  0  0  0
   -0.7508    0.7424    0.0000 H   0  0  0  0  0  0  0  0  0  0  0  0
   -0.4488   -0.3846    0.0000 H   0  0  0  0  0  0  0  0  0  0  0  0
    0.3079   -0.8199    0.0000 H   0  0  0  0  0  0  0  0  0  0  0  0
    1.0484   -0.8199    0.0000 H   0  0  0  0  0  0  0  0  0  0  0  0
    1.7629    1.0671    0.0000 H   0  0  0  0  0  0  0  0  0  0  0  0
    1.0224    1.0671    0.0000 H   0  0  0  0  0  0  0  0  0  0  0  0
    1.7368   -0.8199    0.0000 H   0  0  0  0  0  0  0  0  0  0  0  0
    2.4773   -0.8199    0.0000 H   0  0  0  0  0  0  0  0  0  0  0  0
    3.1918    1.0671    0.0000 H   0  0  0  0  0  0  0  0  0  0  0  0
    2.4513    1.0671    0.0000 H   0  0  0  0  0  0  0  0  0  0  0  0
    3.1658   -0.8199    0.0000 H   0  0  0  0  0  0  0  0  0  0  0  0
    3.9063   -0.8199    0.0000 H   0  0  0  0  0  0  0  0  0  0  0  0
    4.6208    1.0671    0.0000 H   0  0  0  0  0  0  0  0  0  0  0  0
    3.8802    1.0671    0.0000 H   0  0  0  0  0  0  0  0  0  0  0  0
    4.5947   -0.8199    0.0000 H   0  0  0  0  0  0  0  0  0  0  0  0
    5.3352   -0.8199    0.0000 H   0  0  0  0  0  0  0  0  0  0  0  0
    4.9650    0.7424    0.0000 H   0  0  0  0  0  0  0  0  0  0  0  0
    6.0919    1.8693    0.0000 H   0  0  0  0  0  0  0  0  0  0  0  0
    6.0237   -0.8199    0.0000 H   0  0  0  0  0  0  0  0  0  0  0  0
    6.7642   -0.8199    0.0000 H   0  0  0  0  0  0  0  0  0  0  0  0
    7.8229   -0.0826    0.0000 H   0  0  0  0  0  0  0  0  0  0  0  0
  1  2  1  0  0  0  0
  2  3  1  0  0  0  0
  3  4  1  0  0  0  0
  4  5  1  0  0  0  0
  5  6  1  0  0  0  0
  6  7  1  0  0  0  0
  7  8  1  0  0  0  0
  8  9  1  0  0  0  0
  9 10  1  0  0  0  0
  9 11  1  0  0  0  0
 11 12  1  0  0  0  0
  1 13  1  0  0  0  0
  1 14  1  0  0  0  0
  1 15  1  0  0  0  0
  2 16  1  0  0  0  0
  2 17  1  0  0  0  0
  3 18  1  0  0  0  0
  3 19  1  0  0  0  0
  4 20  1  0  0  0  0
  4 21  1  0  0  0  0
  5 22  1  0  0  0  0
  5 23  1  0  0  0  0
  6 24  1  0  0  0  0
  6 25  1  0  0  0  0
  7 26  1  0  0  0  0
  7 27  1  0  0  0  0
  8 28  1  0  0  0  0
  8 29  1  0  0  0  0
  9 30  1  0  0  0  0
 10 31  1  0  0  0  0
 11 32  1  0  0  0  0
 11 33  1  0  0  0  0
 12 34  1  0  0  0  0
M  END
>  <id_input>
4095, 4096, 4097

>  <InChIKey>
YSRSBDQINUMTIF-UHFFFAOYSA-N

>  <substance_name>
decane-1,2-diol

>  <casrn>
1119-86-4

>  <Molecular weight>
174.28048706054688

>  <guideline>
OECD Guideline 404 (Acute Dermal Irritation / Corrosion)

>  <species>
rabbit

>  <type_of_coverage>
occlusive

>  <max_duration(hrs)>
4.0

>  <vehicle>
water

>  <edema/ erythema score>
1.5533333333333297

>  <max_score>
2.0

>  <reversibility>
0.0

>  <Outcome>
1

>  <StandardizerResult>
Remove Explicit Hydrogens (ID: RemoveExplicitH)
Clear Stereo (ID: ClearStereo)
Wedge Clean (ID: WedgeClean)
Mesomerize (ID: Mesomerize)
Tautomerize (ID: Tautomerize)
Add Explicit Hydrogens (ID: AddExplicitH)
Neutralize (ID: Neutralize)
Clean 2D (ID: Clean2D)


$$$$

  Mrv1812 02121911042D          

 15 15  0  0  0  0            999 V2000
    2.1950    1.0450    0.0000 F   0  0  0  0  0  0  0  0  0  0  0  0
    1.4805    0.6325    0.0000 C   0  0  0  0  0  0  0  0  0  0  0  0
    1.0680    1.3470    0.0000 F   0  0  0  0  0  0  0  0  0  0  0  0
    1.8930   -0.0820    0.0000 F   0  0  0  0  0  0  0  0  0  0  0  0
    0.7661    0.2200    0.0000 C   0  0  0  0  0  0  0  0  0  0  0  0
    0.0516    0.6325    0.0000 C   0  0  0  0  0  0  0  0  0  0  0  0
   -0.6629    0.2200    0.0000 C   0  0  0  0  0  0  0  0  0  0  0  0
   -0.6629   -0.6050    0.0000 C   0  0  0  0  0  0  0  0  0  0  0  0
    0.0516   -1.0175    0.0000 C   0  0  0  0  0  0  0  0  0  0  0  0
    0.0516   -1.8425    0.0000 Cl  0  0  0  0  0  0  0  0  0  0  0  0
    0.7661   -0.6050    0.0000 C   0  0  0  0  0  0  0  0  0  0  0  0
    0.0516    1.4575    0.0000 H   0  0  0  0  0  0  0  0  0  0  0  0
   -1.3774    0.6325    0.0000 H   0  0  0  0  0  0  0  0  0  0  0  0
   -1.3774   -1.0175    0.0000 H   0  0  0  0  0  0  0  0  0  0  0  0
    1.4805   -1.0175    0.0000 H   0  0  0  0  0  0  0  0  0  0  0  0
  1  2  1  0  0  0  0
  2  3  1  0  0  0  0
  2  4  1  0  0  0  0
  2  5  1  0  0  0  0
  6  5  4  0  0  0  0
  7  6  4  0  0  0  0
  8  7  4  0  0  0  0
  9  8  4  0  0  0  0
  9 10  1  0  0  0  0
 11  9  4  0  0  0  0
  5 11  4  0  0  0  0
  6 12  1  0  0  0  0
  7 13  1  0  0  0  0
  8 14  1  0  0  0  0
 11 15  1  0  0  0  0
M  END
>  <id_input>
1917

>  <InChIKey>
YTCGOUNVIAWCMG-UHFFFAOYSA-N

>  <substance_name>
1-chloro-3-(trifluoromethyl)benzene

>  <casrn>
98-15-7

>  <Molecular weight>
180.55487060546875

>  <guideline>
OECD Guideline 404 (Acute Dermal Irritation / Corrosion)

>  <species>
rabbit

>  <type_of_coverage>
semiocclusive

>  <max_duration(hrs)>
4.0

>  <vehicle>
unchanged (no vehicle)

>  <edema/ erythema score>
1.7

>  <max_score>
4.0

>  <reversibility>
0.0

>  <Outcome>
1

>  <StandardizerResult>
Remove Explicit Hydrogens (ID: RemoveExplicitH)
Dearomatize (ID: Dearomatize)
Clear Stereo (ID: ClearStereo)
Wedge Clean (ID: WedgeClean)
Mesomerize (ID: Mesomerize)
Tautomerize (ID: Tautomerize)
Aromatize (ID: Aromatize)
Add Explicit Hydrogens (ID: AddExplicitH)
Neutralize (ID: Neutralize)
Clean 2D (ID: Clean2D)


$$$$

  Mrv1812 02121911042D          

 27 27  0  0  0  0            999 V2000
    1.5663    0.7439    0.0000 C   0  0  0  0  0  0  0  0  0  0  0  0
    1.3948   -0.0631    0.0000 C   0  0  0  0  0  0  0  0  0  0  0  0
    2.0079   -0.6151    0.0000 O   0  0  0  0  0  0  0  0  0  0  0  0
    0.6101   -0.3180    0.0000 C   0  0  0  0  0  0  0  0  0  0  0  0
   -0.0573    0.1669    0.0000 C   0  0  0  0  0  0  0  0  0  0  0  0
   -0.7247   -0.3180    0.0000 C   0  0  0  0  0  0  0  0  0  0  0  0
   -0.4698   -1.1027    0.0000 C   0  0  0  0  0  0  0  0  0  0  0  0
   -0.9547   -1.7701    0.0000 C   0  0  0  0  0  0  0  0  0  0  0  0
    0.3552   -1.1027    0.0000 C   0  0  0  0  0  0  0  0  0  0  0  0
    0.2690   -1.9231    0.0000 C   0  0  0  0  0  0  0  0  0  0  0  0
    1.1622   -1.2742    0.0000 C   0  0  0  0  0  0  0  0  0  0  0  0
    2.3733    0.5723    0.0000 H   0  0  0  0  0  0  0  0  0  0  0  0
    1.7378    1.5508    0.0000 H   0  0  0  0  0  0  0  0  0  0  0  0
    0.7593    0.9154    0.0000 H   0  0  0  0  0  0  0  0  0  0  0  0
    0.7392    0.4968    0.0000 H   0  0  0  0  0  0  0  0  0  0  0  0
   -0.1685    0.9843    0.0000 H   0  0  0  0  0  0  0  0  0  0  0  0
   -0.6962    0.6889    0.0000 H   0  0  0  0  0  0  0  0  0  0  0  0
   -1.5094   -0.0631    0.0000 H   0  0  0  0  0  0  0  0  0  0  0  0
   -1.6222   -1.2852    0.0000 H   0  0  0  0  0  0  0  0  0  0  0  0
   -1.4396   -2.4375    0.0000 H   0  0  0  0  0  0  0  0  0  0  0  0
   -0.2873   -2.2550    0.0000 H   0  0  0  0  0  0  0  0  0  0  0  0
    0.7001   -2.6265    0.0000 H   0  0  0  0  0  0  0  0  0  0  0  0
    1.0884   -2.0191    0.0000 H   0  0  0  0  0  0  0  0  0  0  0  0
   -0.4261   -1.4788    0.0000 H   0  0  0  0  0  0  0  0  0  0  0  0
    1.8785   -1.6835    0.0000 H   0  0  0  0  0  0  0  0  0  0  0  0
    1.8282   -0.7873    0.0000 H   0  0  0  0  0  0  0  0  0  0  0  0
    0.9894   -0.4675    0.0000 H   0  0  0  0  0  0  0  0  0  0  0  0
  1  2  1  0  0  0  0
  2  3  2  0  0  0  0
  2  4  1  0  0  0  0
  5  4  1  0  0  0  0
  6  5  1  0  0  0  0
  7  6  2  0  0  0  0
  7  8  1  0  0  0  0
  9  7  1  0  0  0  0
  9 10  1  0  0  0  0
  9 11  1  0  0  0  0
  4  9  1  0  0  0  0
  1 12  1  0  0  0  0
  1 13  1  0  0  0  0
  1 14  1  0  0  0  0
  4 15  1  0  0  0  0
  5 16  1  0  0  0  0
  5 17  1  0  0  0  0
  6 18  1  0  0  0  0
  8 19  1  0  0  0  0
  8 20  1  0  0  0  0
  8 21  1  0  0  0  0
 10 22  1  0  0  0  0
 10 23  1  0  0  0  0
 10 24  1  0  0  0  0
 11 25  1  0  0  0  0
 11 26  1  0  0  0  0
 11 27  1  0  0  0  0
M  END
>  <id_input>
29, 30

>  <InChIKey>
YXGUBJPWGFKWQA-UHFFFAOYSA-N

>  <substance_name>
(2,2,3-trimethylcyclopent-3-en-1-yl)acetaldehyde

>  <casrn>
4501-58-0

>  <Molecular weight>
152.2334442138672

>  <guideline>
OECD Guideline 404 (Acute Dermal Irritation / Corrosion)

>  <species>
rabbit

>  <type_of_coverage>
semiocclusive

>  <max_duration(hrs)>
4.0

>  <vehicle>
not specified

>  <edema/ erythema score>
2.43333333333333

>  <max_score>
4.0

>  <reversibility>
0.0

>  <Outcome>
1

>  <StandardizerResult>
Remove Explicit Hydrogens (ID: RemoveExplicitH)
Clear Stereo (ID: ClearStereo)
Wedge Clean (ID: WedgeClean)
Mesomerize (ID: Mesomerize)
Tautomerize (ID: Tautomerize)
Add Explicit Hydrogens (ID: AddExplicitH)
Neutralize (ID: Neutralize)
Clean 2D (ID: Clean2D)


$$$$

  Mrv1812 02121911042D          

 58 57  0  0  0  0            999 V2000
   -5.2378   -1.6256    0.0000 C   0  0  0  0  0  0  0  0  0  0  0  0
   -4.5233   -1.2131    0.0000 C   0  0  0  0  0  0  0  0  0  0  0  0
   -3.8088   -1.6256    0.0000 C   0  0  0  0  0  0  0  0  0  0  0  0
   -3.0943   -1.2131    0.0000 C   0  0  0  0  0  0  0  0  0  0  0  0
   -2.3799   -1.6256    0.0000 C   0  0  0  0  0  0  0  0  0  0  0  0
   -2.3799   -2.4506    0.0000 C   0  0  0  0  0  0  0  0  0  0  0  0
   -1.6654   -2.8631    0.0000 C   0  0  0  0  0  0  0  0  0  0  0  0
   -1.6654   -1.2131    0.0000 C   0  0  0  0  0  0  0  0  0  0  0  0
   -0.9509   -1.6256    0.0000 O   0  0  0  0  0  0  0  0  0  0  0  0
   -0.2365   -1.2131    0.0000 C   0  0  0  0  0  0  0  0  0  0  0  0
   -0.2365   -0.3881    0.0000 O   0  0  0  0  0  0  0  0  0  0  0  0
    0.4780   -1.6256    0.0000 O   0  0  0  0  0  0  0  0  0  0  0  0
    1.1925   -1.2131    0.0000 O   0  0  0  0  0  0  0  0  0  0  0  0
    1.9070   -1.6256    0.0000 C   0  0  0  0  0  0  0  0  0  0  0  0
    1.9070   -2.4506    0.0000 O   0  0  0  0  0  0  0  0  0  0  0  0
    2.6214   -1.2131    0.0000 O   0  0  0  0  0  0  0  0  0  0  0  0
    3.3359   -1.6256    0.0000 C   0  0  0  0  0  0  0  0  0  0  0  0
    4.0504   -1.2131    0.0000 C   0  0  0  0  0  0  0  0  0  0  0  0
    4.0504   -0.3881    0.0000 C   0  0  0  0  0  0  0  0  0  0  0  0
    4.7648    0.0244    0.0000 C   0  0  0  0  0  0  0  0  0  0  0  0
    4.7648   -1.6256    0.0000 C   0  0  0  0  0  0  0  0  0  0  0  0
    5.4793   -1.2131    0.0000 C   0  0  0  0  0  0  0  0  0  0  0  0
    6.1938   -1.6256    0.0000 C   0  0  0  0  0  0  0  0  0  0  0  0
    6.9083   -1.2131    0.0000 C   0  0  0  0  0  0  0  0  0  0  0  0
   -5.6503   -0.9111    0.0000 H   0  0  0  0  0  0  0  0  0  0  0  0
   -5.9522   -2.0381    0.0000 H   0  0  0  0  0  0  0  0  0  0  0  0
   -4.8253   -2.3401    0.0000 H   0  0  0  0  0  0  0  0  0  0  0  0
   -4.1530   -0.4758    0.0000 H   0  0  0  0  0  0  0  0  0  0  0  0
   -4.8935   -0.4758    0.0000 H   0  0  0  0  0  0  0  0  0  0  0  0
   -4.1791   -2.3628    0.0000 H   0  0  0  0  0  0  0  0  0  0  0  0
   -3.4386   -2.3628    0.0000 H   0  0  0  0  0  0  0  0  0  0  0  0
   -2.7241   -0.4758    0.0000 H   0  0  0  0  0  0  0  0  0  0  0  0
   -3.4646   -0.4758    0.0000 H   0  0  0  0  0  0  0  0  0  0  0  0
   -3.0943   -2.0381    0.0000 H   0  0  0  0  0  0  0  0  0  0  0  0
   -3.0119   -2.9809    0.0000 H   0  0  0  0  0  0  0  0  0  0  0  0
   -2.5231   -3.2631    0.0000 H   0  0  0  0  0  0  0  0  0  0  0  0
   -1.5044   -3.6722    0.0000 H   0  0  0  0  0  0  0  0  0  0  0  0
   -0.8412   -2.8991    0.0000 H   0  0  0  0  0  0  0  0  0  0  0  0
   -1.4345   -2.0711    0.0000 H   0  0  0  0  0  0  0  0  0  0  0  0
   -1.2951   -0.4758    0.0000 H   0  0  0  0  0  0  0  0  0  0  0  0
   -2.0357   -0.4758    0.0000 H   0  0  0  0  0  0  0  0  0  0  0  0
    2.9656   -2.3628    0.0000 H   0  0  0  0  0  0  0  0  0  0  0  0
    3.7062   -2.3628    0.0000 H   0  0  0  0  0  0  0  0  0  0  0  0
    3.3359   -0.8006    0.0000 H   0  0  0  0  0  0  0  0  0  0  0  0
    3.9071    0.4244    0.0000 H   0  0  0  0  0  0  0  0  0  0  0  0
    3.4184    0.1422    0.0000 H   0  0  0  0  0  0  0  0  0  0  0  0
    4.9957   -0.7676    0.0000 H   0  0  0  0  0  0  0  0  0  0  0  0
    5.5891    0.0604    0.0000 H   0  0  0  0  0  0  0  0  0  0  0  0
    4.9258    0.8336    0.0000 H   0  0  0  0  0  0  0  0  0  0  0  0
    4.3946   -2.3628    0.0000 H   0  0  0  0  0  0  0  0  0  0  0  0
    5.1351   -2.3628    0.0000 H   0  0  0  0  0  0  0  0  0  0  0  0
    5.9680   -0.5484    0.0000 H   0  0  0  0  0  0  0  0  0  0  0  0
    5.4793   -2.0381    0.0000 H   0  0  0  0  0  0  0  0  0  0  0  0
    6.3370   -2.4381    0.0000 H   0  0  0  0  0  0  0  0  0  0  0  0
    6.8258   -2.1559    0.0000 H   0  0  0  0  0  0  0  0  0  0  0  0
    7.6895   -1.4783    0.0000 H   0  0  0  0  0  0  0  0  0  0  0  0
    7.3515   -0.5173    0.0000 H   0  0  0  0  0  0  0  0  0  0  0  0
    6.3378   -0.6171    0.0000 H   0  0  0  0  0  0  0  0  0  0  0  0
  1  2  1  0  0  0  0
  2  3  1  0  0  0  0
  3  4  1  0  0  0  0
  4  5  1  0  0  0  0
  5  6  1  0  0  0  0
  6  7  1  0  0  0  0
  5  8  1  0  0  0  0
  8  9  1  0  0  0  0
  9 10  1  0  0  0  0
 10 11  2  0  0  0  0
 10 12  1  0  0  0  0
 12 13  1  0  0  0  0
 13 14  1  0  0  0  0
 14 15  2  0  0  0  0
 14 16  1  0  0  0  0
 16 17  1  0  0  0  0
 17 18  1  0  0  0  0
 18 19  1  0  0  0  0
 19 20  1  0  0  0  0
 18 21  1  0  0  0  0
 21 22  1  0  0  0  0
 22 23  1  0  0  0  0
 23 24  1  0  0  0  0
  1 25  1  0  0  0  0
  1 26  1  0  0  0  0
  1 27  1  0  0  0  0
  2 28  1  0  0  0  0
  2 29  1  0  0  0  0
  3 30  1  0  0  0  0
  3 31  1  0  0  0  0
  4 32  1  0  0  0  0
  4 33  1  0  0  0  0
  5 34  1  0  0  0  0
  6 35  1  0  0  0  0
  6 36  1  0  0  0  0
  7 37  1  0  0  0  0
  7 38  1  0  0  0  0
  7 39  1  0  0  0  0
  8 40  1  0  0  0  0
  8 41  1  0  0  0  0
 17 42  1  0  0  0  0
 17 43  1  0  0  0  0
 18 44  1  0  0  0  0
 19 45  1  0  0  0  0
 19 46  1  0  0  0  0
 20 47  1  0  0  0  0
 20 48  1  0  0  0  0
 20 49  1  0  0  0  0
 21 50  1  0  0  0  0
 21 51  1  0  0  0  0
 22 52  1  0  0  0  0
 22 53  1  0  0  0  0
 23 54  1  0  0  0  0
 23 55  1  0  0  0  0
 24 56  1  0  0  0  0
 24 57  1  0  0  0  0
 24 58  1  0  0  0  0
M  END
>  <id_input>
2708

>  <InChIKey>
ZACVGCNKGYYQHA-UHFFFAOYSA-N

>  <substance_name>
3-({[({[(2-ethylhexyl)oxy]carbonyl}peroxy)carbonyl]oxy}methyl)heptane

>  <casrn>
16111-62-9

>  <Molecular weight>
346.4589538574219

>  <guideline>
OECD Guideline 404 (Acute Dermal Irritation / Corrosion)

>  <species>
rabbit

>  <type_of_coverage>
semiocclusive

>  <max_duration(hrs)>
4.0

>  <vehicle>
unchanged (no vehicle)

>  <edema/ erythema score>
2.66666666666666

>  <max_score>
2.0

>  <reversibility>
0.0

>  <Outcome>
1

>  <StandardizerResult>
Remove Explicit Hydrogens (ID: RemoveExplicitH)
Clear Stereo (ID: ClearStereo)
Wedge Clean (ID: WedgeClean)
Mesomerize (ID: Mesomerize)
Tautomerize (ID: Tautomerize)
Add Explicit Hydrogens (ID: AddExplicitH)
Neutralize (ID: Neutralize)
Clean 2D (ID: Clean2D)


$$$$

  Mrv1812 02121911042D          

 21 20  0  0  0  0            999 V2000
    1.8409    2.5584    0.0000 C   0  0  0  0  0  0  0  0  0  0  0  0
    1.4284    1.8439    0.0000 C   0  0  0  0  0  0  0  0  0  0  0  0
    0.6034    1.8439    0.0000 C   0  0  0  0  0  0  0  0  0  0  0  0
    1.8409    1.1295    0.0000 O   0  0  0  0  0  0  0  0  0  0  0  0
    1.4284    0.4150    0.0000 C   0  0  0  0  0  0  0  0  0  0  0  0
    1.8409   -0.2995    0.0000 C   0  0  0  0  0  0  0  0  0  0  0  0
    0.6034    0.4150    0.0000 C   0  0  0  0  0  0  0  0  0  0  0  0
    2.5554    2.1459    0.0000 H   0  0  0  0  0  0  0  0  0  0  0  0
    2.2534    3.2729    0.0000 H   0  0  0  0  0  0  0  0  0  0  0  0
    1.1264    2.9709    0.0000 H   0  0  0  0  0  0  0  0  0  0  0  0
    1.0159    2.5584    0.0000 H   0  0  0  0  0  0  0  0  0  0  0  0
    0.0200    2.4273    0.0000 H   0  0  0  0  0  0  0  0  0  0  0  0
   -0.1111    1.4314    0.0000 H   0  0  0  0  0  0  0  0  0  0  0  0
    0.8169    1.0470    0.0000 H   0  0  0  0  0  0  0  0  0  0  0  0
    2.2534    0.4150    0.0000 H   0  0  0  0  0  0  0  0  0  0  0  0
    1.0440   -0.5130    0.0000 H   0  0  0  0  0  0  0  0  0  0  0  0
    1.8409   -1.1245    0.0000 H   0  0  0  0  0  0  0  0  0  0  0  0
    2.6378   -0.5130    0.0000 H   0  0  0  0  0  0  0  0  0  0  0  0
   -0.0598    0.9057    0.0000 H   0  0  0  0  0  0  0  0  0  0  0  0
   -0.0669   -0.0661    0.0000 H   0  0  0  0  0  0  0  0  0  0  0  0
    0.8560   -0.3704    0.0000 H   0  0  0  0  0  0  0  0  0  0  0  0
  1  2  1  0  0  0  0
  2  3  1  0  0  0  0
  2  4  1  0  0  0  0
  4  5  1  0  0  0  0
  5  6  1  0  0  0  0
  5  7  1  0  0  0  0
  1  8  1  0  0  0  0
  1  9  1  0  0  0  0
  1 10  1  0  0  0  0
  2 11  1  0  0  0  0
  3 12  1  0  0  0  0
  3 13  1  0  0  0  0
  3 14  1  0  0  0  0
  5 15  1  0  0  0  0
  6 16  1  0  0  0  0
  6 17  1  0  0  0  0
  6 18  1  0  0  0  0
  7 19  1  0  0  0  0
  7 20  1  0  0  0  0
  7 21  1  0  0  0  0
M  END
>  <id_input>
2224

>  <InChIKey>
ZAFNJMIOTHYJRJ-UHFFFAOYSA-N

>  <substance_name>
2-(propan-2-yloxy)propane

>  <casrn>
108-20-3

>  <Molecular weight>
102.17475891113281

>  <guideline>
OECD Guideline 404 (Acute Dermal Irritation / Corrosion)

>  <species>
rabbit

>  <type_of_coverage>
semiocclusive

>  <max_duration(hrs)>
4.0

>  <vehicle>
unchanged (no vehicle)

>  <edema/ erythema score>
1.76666666666666

>  <max_score>
4.0

>  <reversibility>
0.0

>  <Outcome>
1

>  <StandardizerResult>
Remove Explicit Hydrogens (ID: RemoveExplicitH)
Clear Stereo (ID: ClearStereo)
Wedge Clean (ID: WedgeClean)
Mesomerize (ID: Mesomerize)
Tautomerize (ID: Tautomerize)
Add Explicit Hydrogens (ID: AddExplicitH)
Neutralize (ID: Neutralize)
Clean 2D (ID: Clean2D)


$$$$

  Mrv1812 02121911042D          

 31 31  0  0  0  0            999 V2000
    3.7678   -0.1857    0.0000 C   0  0  0  0  0  0  0  0  0  0  0  0
    3.0534    0.2268    0.0000 C   0  0  0  0  0  0  0  0  0  0  0  0
    3.0534    1.0518    0.0000 O   0  0  0  0  0  0  0  0  0  0  0  0
    2.3389   -0.1857    0.0000 C   0  0  0  0  0  0  0  0  0  0  0  0
    1.6244    0.2268    0.0000 C   0  0  0  0  0  0  0  0  0  0  0  0
    0.9100   -0.1857    0.0000 C   0  0  0  0  0  0  0  0  0  0  0  0
    0.1955    0.2268    0.0000 C   0  0  0  0  0  0  0  0  0  0  0  0
   -0.5190   -0.1857    0.0000 C   0  0  0  0  0  0  0  0  0  0  0  0
   -0.5190   -1.0107    0.0000 C   0  0  0  0  0  0  0  0  0  0  0  0
    0.1955   -1.4232    0.0000 C   0  0  0  0  0  0  0  0  0  0  0  0
    0.9100   -1.0107    0.0000 C   0  0  0  0  0  0  0  0  0  0  0  0
    3.3553   -0.9002    0.0000 H   0  0  0  0  0  0  0  0  0  0  0  0
    4.4823   -0.5982    0.0000 H   0  0  0  0  0  0  0  0  0  0  0  0
    4.1803    0.5288    0.0000 H   0  0  0  0  0  0  0  0  0  0  0  0
    3.7678    0.6393    0.0000 H   0  0  0  0  0  0  0  0  0  0  0  0
    2.6409    1.7663    0.0000 H   0  0  0  0  0  0  0  0  0  0  0  0
    1.9686   -0.9229    0.0000 H   0  0  0  0  0  0  0  0  0  0  0  0
    2.7092   -0.9229    0.0000 H   0  0  0  0  0  0  0  0  0  0  0  0
    1.9947    0.9641    0.0000 H   0  0  0  0  0  0  0  0  0  0  0  0
    1.2542    0.9641    0.0000 H   0  0  0  0  0  0  0  0  0  0  0  0
    0.9100    0.6393    0.0000 H   0  0  0  0  0  0  0  0  0  0  0  0
    0.0522    1.0393    0.0000 H   0  0  0  0  0  0  0  0  0  0  0  0
   -0.4365    0.7571    0.0000 H   0  0  0  0  0  0  0  0  0  0  0  0
   -1.2781    0.1374    0.0000 H   0  0  0  0  0  0  0  0  0  0  0  0
   -1.3034   -0.4414    0.0000 H   0  0  0  0  0  0  0  0  0  0  0  0
   -1.1834   -1.4997    0.0000 H   0  0  0  0  0  0  0  0  0  0  0  0
   -0.6951   -1.8167    0.0000 H   0  0  0  0  0  0  0  0  0  0  0  0
   -0.1748   -2.1604    0.0000 H   0  0  0  0  0  0  0  0  0  0  0  0
    0.5657   -2.1604    0.0000 H   0  0  0  0  0  0  0  0  0  0  0  0
    1.3633   -1.7000    0.0000 H   0  0  0  0  0  0  0  0  0  0  0  0
    1.7336   -1.0587    0.0000 H   0  0  0  0  0  0  0  0  0  0  0  0
  1  2  1  0  0  0  0
  2  3  1  0  0  0  0
  2  4  1  0  0  0  0
  4  5  1  0  0  0  0
  5  6  1  0  0  0  0
  7  6  1  0  0  0  0
  8  7  1  0  0  0  0
  9  8  1  0  0  0  0
 10  9  1  0  0  0  0
 11 10  1  0  0  0  0
  6 11  1  0  0  0  0
  1 12  1  0  0  0  0
  1 13  1  0  0  0  0
  1 14  1  0  0  0  0
  2 15  1  0  0  0  0
  3 16  1  0  0  0  0
  4 17  1  0  0  0  0
  4 18  1  0  0  0  0
  5 19  1  0  0  0  0
  5 20  1  0  0  0  0
  6 21  1  0  0  0  0
  7 22  1  0  0  0  0
  7 23  1  0  0  0  0
  8 24  1  0  0  0  0
  8 25  1  0  0  0  0
  9 26  1  0  0  0  0
  9 27  1  0  0  0  0
 10 28  1  0  0  0  0
 10 29  1  0  0  0  0
 11 30  1  0  0  0  0
 11 31  1  0  0  0  0
M  END
>  <id_input>
2896

>  <InChIKey>
ZBLQQRZVKHLRBF-UHFFFAOYSA-N

>  <substance_name>
4-cyclohexylbutan-2-ol

>  <casrn>
10528-67-3

>  <Molecular weight>
156.26519775390625

>  <guideline>
OECD Guideline 404 (Acute Dermal Irritation / Corrosion)

>  <species>
rabbit

>  <type_of_coverage>
semiocclusive

>  <max_duration(hrs)>
4.0

>  <vehicle>
unchanged (no vehicle)

>  <edema/ erythema score>
2.8925

>  <max_score>
4.0

>  <reversibility>
0.0

>  <Outcome>
1

>  <StandardizerResult>
Remove Explicit Hydrogens (ID: RemoveExplicitH)
Clear Stereo (ID: ClearStereo)
Wedge Clean (ID: WedgeClean)
Mesomerize (ID: Mesomerize)
Tautomerize (ID: Tautomerize)
Add Explicit Hydrogens (ID: AddExplicitH)
Neutralize (ID: Neutralize)
Clean 2D (ID: Clean2D)


$$$$

  Mrv1812 02121911042D          

 21 21  0  0  0  0            999 V2000
    1.5991   -1.3554    0.0000 C   0  0  0  0  0  0  0  0  0  0  0  0
    1.5991   -0.5304    0.0000 O   0  0  0  0  0  0  0  0  0  0  0  0
    0.8846   -0.1179    0.0000 B   0  0  0  0  0  0  0  0  0  0  0  0
    0.8846    0.7071    0.0000 O   0  0  0  0  0  0  0  0  0  0  0  0
    0.1701    1.1196    0.0000 B   0  0  0  0  0  0  0  0  0  0  0  0
    0.1701    1.9446    0.0000 O   0  0  0  0  0  0  0  0  0  0  0  0
   -0.5444    2.3571    0.0000 C   0  0  0  0  0  0  0  0  0  0  0  0
   -0.5444    0.7071    0.0000 O   0  0  0  0  0  0  0  0  0  0  0  0
   -0.5444   -0.1179    0.0000 B   0  0  0  0  0  0  0  0  0  0  0  0
   -1.2588   -0.5304    0.0000 O   0  0  0  0  0  0  0  0  0  0  0  0
   -1.2588   -1.3554    0.0000 C   0  0  0  0  0  0  0  0  0  0  0  0
    0.1701   -0.5304    0.0000 O   0  0  0  0  0  0  0  0  0  0  0  0
    0.7741   -1.3554    0.0000 H   0  0  0  0  0  0  0  0  0  0  0  0
    1.5991   -2.1804    0.0000 H   0  0  0  0  0  0  0  0  0  0  0  0
    2.4241   -1.3554    0.0000 H   0  0  0  0  0  0  0  0  0  0  0  0
   -0.1319    3.0716    0.0000 H   0  0  0  0  0  0  0  0  0  0  0  0
   -1.2588    2.7696    0.0000 H   0  0  0  0  0  0  0  0  0  0  0  0
   -0.9569    1.6426    0.0000 H   0  0  0  0  0  0  0  0  0  0  0  0
   -2.0838   -1.3554    0.0000 H   0  0  0  0  0  0  0  0  0  0  0  0
   -1.2588   -2.1804    0.0000 H   0  0  0  0  0  0  0  0  0  0  0  0
   -0.4338   -1.3554    0.0000 H   0  0  0  0  0  0  0  0  0  0  0  0
  1  2  1  0  0  0  0
  2  3  1  0  0  0  0
  4  3  1  0  0  0  0
  5  4  1  0  0  0  0
  5  6  1  0  0  0  0
  6  7  1  0  0  0  0
  8  5  1  0  0  0  0
  9  8  1  0  0  0  0
  9 10  1  0  0  0  0
 10 11  1  0  0  0  0
 12  9  1  0  0  0  0
  3 12  1  0  0  0  0
  1 13  1  0  0  0  0
  1 14  1  0  0  0  0
  1 15  1  0  0  0  0
  7 16  1  0  0  0  0
  7 17  1  0  0  0  0
  7 18  1  0  0  0  0
 11 19  1  0  0  0  0
 11 20  1  0  0  0  0
 11 21  1  0  0  0  0
M  END
>  <id_input>
5154

>  <InChIKey>
ZFMOJHVRFMOIGF-UHFFFAOYSA-N

>  <substance_name>
trimethoxy-1,3,5,2,4,6-trioxatriborinane

>  <casrn>
102-24-9

>  <Molecular weight>
173.532958984375

>  <guideline>
OECD Guideline 404 (Acute Dermal Irritation / Corrosion)

>  <species>
rabbit

>  <type_of_coverage>
semiocclusive

>  <max_duration(hrs)>
4.0

>  <vehicle>
unchanged (no vehicle)

>  <edema/ erythema score>
1.7

>  <max_score>
4.0

>  <reversibility>
0.0

>  <Outcome>
1

>  <StandardizerResult>
Remove Explicit Hydrogens (ID: RemoveExplicitH)
Clear Stereo (ID: ClearStereo)
Wedge Clean (ID: WedgeClean)
Mesomerize (ID: Mesomerize)
Tautomerize (ID: Tautomerize)
Add Explicit Hydrogens (ID: AddExplicitH)
Neutralize (ID: Neutralize)
Clean 2D (ID: Clean2D)


$$$$

  Mrv1812 02121911042D          

 77 76  0  0  0  0            999 V2000
    4.7600   -5.2186    0.0000 C   0  0  0  0  0  0  0  0  0  0  0  0
    4.3475   -4.5041    0.0000 C   0  0  0  0  0  0  0  0  0  0  0  0
    4.7600   -3.7896    0.0000 C   0  0  0  0  0  0  0  0  0  0  0  0
    4.3475   -3.0752    0.0000 C   0  0  0  0  0  0  0  0  0  0  0  0
    4.7600   -2.3607    0.0000 C   0  0  0  0  0  0  0  0  0  0  0  0
    4.3475   -1.6462    0.0000 C   0  0  0  0  0  0  0  0  0  0  0  0
    4.7600   -0.9317    0.0000 C   0  0  0  0  0  0  0  0  0  0  0  0
    4.3475   -0.2173    0.0000 C   0  0  0  0  0  0  0  0  0  0  0  0
    4.7600    0.4972    0.0000 P   0  0  0  0  0  0  0  0  0  0  0  0
    5.4745    0.0847    0.0000 O   0  0  0  0  0  0  0  0  0  0  0  0
    5.1725    1.2117    0.0000 C   0  0  0  0  0  0  0  0  0  0  0  0
    5.9975    1.2117    0.0000 C   0  0  0  0  0  0  0  0  0  0  0  0
    6.4100    0.4972    0.0000 C   0  0  0  0  0  0  0  0  0  0  0  0
    7.2350    0.4972    0.0000 C   0  0  0  0  0  0  0  0  0  0  0  0
    7.6475   -0.2173    0.0000 C   0  0  0  0  0  0  0  0  0  0  0  0
    8.4725   -0.2173    0.0000 C   0  0  0  0  0  0  0  0  0  0  0  0
    8.8850   -0.9317    0.0000 C   0  0  0  0  0  0  0  0  0  0  0  0
    9.7100   -0.9317    0.0000 C   0  0  0  0  0  0  0  0  0  0  0  0
    4.0455    0.9097    0.0000 C   0  0  0  0  0  0  0  0  0  0  0  0
    4.0455    1.7347    0.0000 C   0  0  0  0  0  0  0  0  0  0  0  0
    4.7600    2.1472    0.0000 C   0  0  0  0  0  0  0  0  0  0  0  0
    5.4745    1.7347    0.0000 C   0  0  0  0  0  0  0  0  0  0  0  0
    6.1889    2.1472    0.0000 C   0  0  0  0  0  0  0  0  0  0  0  0
    6.9034    1.7347    0.0000 C   0  0  0  0  0  0  0  0  0  0  0  0
    7.6179    2.1472    0.0000 C   0  0  0  0  0  0  0  0  0  0  0  0
    8.3324    1.7347    0.0000 C   0  0  0  0  0  0  0  0  0  0  0  0
    4.0455   -5.6311    0.0000 H   0  0  0  0  0  0  0  0  0  0  0  0
    5.1725   -5.9330    0.0000 H   0  0  0  0  0  0  0  0  0  0  0  0
    5.4745   -4.8061    0.0000 H   0  0  0  0  0  0  0  0  0  0  0  0
    3.6103   -4.1338    0.0000 H   0  0  0  0  0  0  0  0  0  0  0  0
    3.6103   -4.8744    0.0000 H   0  0  0  0  0  0  0  0  0  0  0  0
    5.4973   -4.1599    0.0000 H   0  0  0  0  0  0  0  0  0  0  0  0
    5.4973   -3.4194    0.0000 H   0  0  0  0  0  0  0  0  0  0  0  0
    3.6103   -2.7049    0.0000 H   0  0  0  0  0  0  0  0  0  0  0  0
    3.6103   -3.4454    0.0000 H   0  0  0  0  0  0  0  0  0  0  0  0
    5.4973   -2.7309    0.0000 H   0  0  0  0  0  0  0  0  0  0  0  0
    5.4973   -1.9904    0.0000 H   0  0  0  0  0  0  0  0  0  0  0  0
    3.6103   -1.2760    0.0000 H   0  0  0  0  0  0  0  0  0  0  0  0
    3.6103   -2.0165    0.0000 H   0  0  0  0  0  0  0  0  0  0  0  0
    5.4973   -1.3020    0.0000 H   0  0  0  0  0  0  0  0  0  0  0  0
    5.4973   -0.5615    0.0000 H   0  0  0  0  0  0  0  0  0  0  0  0
    3.6103    0.1530    0.0000 H   0  0  0  0  0  0  0  0  0  0  0  0
    3.6103   -0.5875    0.0000 H   0  0  0  0  0  0  0  0  0  0  0  0
    4.6422    1.8437    0.0000 H   0  0  0  0  0  0  0  0  0  0  0  0
    4.3600    1.3549    0.0000 H   0  0  0  0  0  0  0  0  0  0  0  0
    6.8119    1.3438    0.0000 H   0  0  0  0  0  0  0  0  0  0  0  0
    5.5850    0.4972    0.0000 H   0  0  0  0  0  0  0  0  0  0  0  0
    6.1278   -0.2781    0.0000 H   0  0  0  0  0  0  0  0  0  0  0  0
    6.6922   -0.2781    0.0000 H   0  0  0  0  0  0  0  0  0  0  0  0
    8.0598    0.4807    0.0000 H   0  0  0  0  0  0  0  0  0  0  0  0
    7.6758    1.1946    0.0000 H   0  0  0  0  0  0  0  0  0  0  0  0
    7.2656   -0.9486    0.0000 H   0  0  0  0  0  0  0  0  0  0  0  0
    8.0750   -0.9229    0.0000 H   0  0  0  0  0  0  0  0  0  0  0  0
    9.2844   -0.0707    0.0000 H   0  0  0  0  0  0  0  0  0  0  0  0
    8.9988    0.4181    0.0000 H   0  0  0  0  0  0  0  0  0  0  0  0
    8.5976   -1.7051    0.0000 H   0  0  0  0  0  0  0  0  0  0  0  0
    9.1639   -1.7082    0.0000 H   0  0  0  0  0  0  0  0  0  0  0  0
   10.0617   -1.6780    0.0000 H   0  0  0  0  0  0  0  0  0  0  0  0
   10.5326   -0.9952    0.0000 H   0  0  0  0  0  0  0  0  0  0  0  0
   10.1720   -0.2482    0.0000 H   0  0  0  0  0  0  0  0  0  0  0  0
    3.4133    1.4397    0.0000 H   0  0  0  0  0  0  0  0  0  0  0  0
    3.2332    0.7656    0.0000 H   0  0  0  0  0  0  0  0  0  0  0  0
    4.0695    2.5593    0.0000 H   0  0  0  0  0  0  0  0  0  0  0  0
    3.3562    2.1879    0.0000 H   0  0  0  0  0  0  0  0  0  0  0  0
    5.4765    2.5562    0.0000 H   0  0  0  0  0  0  0  0  0  0  0  0
    4.7680    2.9722    0.0000 H   0  0  0  0  0  0  0  0  0  0  0  0
    6.2924    1.6270    0.0000 H   0  0  0  0  0  0  0  0  0  0  0  0
    5.8878    2.4487    0.0000 H   0  0  0  0  0  0  0  0  0  0  0  0
    6.9367    2.4957    0.0000 H   0  0  0  0  0  0  0  0  0  0  0  0
    6.3325    2.9596    0.0000 H   0  0  0  0  0  0  0  0  0  0  0  0
    6.3040    1.1678    0.0000 H   0  0  0  0  0  0  0  0  0  0  0  0
    7.1981    0.9641    0.0000 H   0  0  0  0  0  0  0  0  0  0  0  0
    8.2393    2.6898    0.0000 H   0  0  0  0  0  0  0  0  0  0  0  0
    7.7359    2.9637    0.0000 H   0  0  0  0  0  0  0  0  0  0  0  0
    8.4539    0.9187    0.0000 H   0  0  0  0  0  0  0  0  0  0  0  0
    9.0946    1.4190    0.0000 H   0  0  0  0  0  0  0  0  0  0  0  0
    8.9952    2.2258    0.0000 H   0  0  0  0  0  0  0  0  0  0  0  0
  1  2  1  0  0  0  0
  2  3  1  0  0  0  0
  3  4  1  0  0  0  0
  4  5  1  0  0  0  0
  5  6  1  0  0  0  0
  6  7  1  0  0  0  0
  7  8  1  0  0  0  0
  8  9  1  0  0  0  0
  9 10  2  0  0  0  0
  9 11  1  0  0  0  0
 11 12  1  0  0  0  0
 12 13  1  0  0  0  0
 13 14  1  0  0  0  0
 14 15  1  0  0  0  0
 15 16  1  0  0  0  0
 16 17  1  0  0  0  0
 17 18  1  0  0  0  0
  9 19  1  0  0  0  0
 19 20  1  0  0  0  0
 20 21  1  0  0  0  0
 21 22  1  0  0  0  0
 22 23  1  0  0  0  0
 23 24  1  0  0  0  0
 24 25  1  0  0  0  0
 25 26  1  0  0  0  0
  1 27  1  0  0  0  0
  1 28  1  0  0  0  0
  1 29  1  0  0  0  0
  2 30  1  0  0  0  0
  2 31  1  0  0  0  0
  3 32  1  0  0  0  0
  3 33  1  0  0  0  0
  4 34  1  0  0  0  0
  4 35  1  0  0  0  0
  5 36  1  0  0  0  0
  5 37  1  0  0  0  0
  6 38  1  0  0  0  0
  6 39  1  0  0  0  0
  7 40  1  0  0  0  0
  7 41  1  0  0  0  0
  8 42  1  0  0  0  0
  8 43  1  0  0  0  0
 11 44  1  0  0  0  0
 11 45  1  0  0  0  0
 12 46  1  0  0  0  0
 12 47  1  0  0  0  0
 13 48  1  0  0  0  0
 13 49  1  0  0  0  0
 14 50  1  0  0  0  0
 14 51  1  0  0  0  0
 15 52  1  0  0  0  0
 15 53  1  0  0  0  0
 16 54  1  0  0  0  0
 16 55  1  0  0  0  0
 17 56  1  0  0  0  0
 17 57  1  0  0  0  0
 18 58  1  0  0  0  0
 18 59  1  0  0  0  0
 18 60  1  0  0  0  0
 19 61  1  0  0  0  0
 19 62  1  0  0  0  0
 20 63  1  0  0  0  0
 20 64  1  0  0  0  0
 21 65  1  0  0  0  0
 21 66  1  0  0  0  0
 22 67  1  0  0  0  0
 22 68  1  0  0  0  0
 23 69  1  0  0  0  0
 23 70  1  0  0  0  0
 24 71  1  0  0  0  0
 24 72  1  0  0  0  0
 25 73  1  0  0  0  0
 25 74  1  0  0  0  0
 26 75  1  0  0  0  0
 26 76  1  0  0  0  0
 26 77  1  0  0  0  0
M  END
>  <id_input>
5165

>  <InChIKey>
ZMBHCYHQLYEYDV-UHFFFAOYSA-N

>  <substance_name>
trioctylphosphine oxide

>  <casrn>
78-50-2

>  <Molecular weight>
386.6349182128906

>  <guideline>
OECD Guideline 404 (Acute Dermal Irritation / Corrosion)

>  <species>
rabbit

>  <type_of_coverage>
semiocclusive

>  <max_duration(hrs)>
4.0

>  <vehicle>
other: Distilled water

>  <edema/ erythema score>
2.0

>  <max_score>
4.0

>  <reversibility>
0.0

>  <Outcome>
1

>  <StandardizerResult>
Remove Explicit Hydrogens (ID: RemoveExplicitH)
Clear Stereo (ID: ClearStereo)
Wedge Clean (ID: WedgeClean)
Mesomerize (ID: Mesomerize)
Tautomerize (ID: Tautomerize)
Add Explicit Hydrogens (ID: AddExplicitH)
Neutralize (ID: Neutralize)
Clean 2D (ID: Clean2D)


$$$$

  Mrv1812 02121911042D          

 41 42  0  0  0  0            999 V2000
   -0.5256   -3.0445    0.0000 C   0  0  0  0  0  0  0  0  0  0  0  0
   -1.2401   -3.4570    0.0000 C   0  0  0  0  0  0  0  0  0  0  0  0
   -1.9545   -3.0445    0.0000 N   0  0  0  0  0  0  0  0  0  0  0  0
   -1.9545   -2.2195    0.0000 C   0  0  0  0  0  0  0  0  0  0  0  0
   -2.6690   -1.8070    0.0000 C   0  0  0  0  0  0  0  0  0  0  0  0
   -3.3835   -2.2195    0.0000 O   0  0  0  0  0  0  0  0  0  0  0  0
   -3.3835   -3.0445    0.0000 C   0  0  0  0  0  0  0  0  0  0  0  0
   -2.6690   -3.4570    0.0000 C   0  0  0  0  0  0  0  0  0  0  0  0
    0.1889   -3.4570    0.0000 O   0  0  0  0  0  0  0  0  0  0  0  0
    0.9033   -3.0445    0.0000 C   0  0  0  0  0  0  0  0  0  0  0  0
    1.6178   -3.4570    0.0000 C   0  0  0  0  0  0  0  0  0  0  0  0
    2.3323   -3.0445    0.0000 N   0  0  0  0  0  0  0  0  0  0  0  0
    3.0468   -3.4570    0.0000 C   0  0  0  0  0  0  0  0  0  0  0  0
    3.7612   -3.0445    0.0000 C   0  0  0  0  0  0  0  0  0  0  0  0
    3.7612   -2.2195    0.0000 O   0  0  0  0  0  0  0  0  0  0  0  0
    3.0468   -1.8070    0.0000 C   0  0  0  0  0  0  0  0  0  0  0  0
    2.3323   -2.2195    0.0000 C   0  0  0  0  0  0  0  0  0  0  0  0
   -0.1553   -2.3073    0.0000 H   0  0  0  0  0  0  0  0  0  0  0  0
   -0.8959   -2.3073    0.0000 H   0  0  0  0  0  0  0  0  0  0  0  0
   -1.6103   -4.1943    0.0000 H   0  0  0  0  0  0  0  0  0  0  0  0
   -0.8698   -4.1943    0.0000 H   0  0  0  0  0  0  0  0  0  0  0  0
   -1.1309   -2.1716    0.0000 H   0  0  0  0  0  0  0  0  0  0  0  0
   -1.5012   -1.5303    0.0000 H   0  0  0  0  0  0  0  0  0  0  0  0
   -2.2987   -1.0698    0.0000 H   0  0  0  0  0  0  0  0  0  0  0  0
   -3.0393   -1.0698    0.0000 H   0  0  0  0  0  0  0  0  0  0  0  0
   -4.2071   -3.0925    0.0000 H   0  0  0  0  0  0  0  0  0  0  0  0
   -3.8368   -3.7338    0.0000 H   0  0  0  0  0  0  0  0  0  0  0  0
   -3.0393   -4.1943    0.0000 H   0  0  0  0  0  0  0  0  0  0  0  0
   -2.2987   -4.1943    0.0000 H   0  0  0  0  0  0  0  0  0  0  0  0
    1.2736   -2.3073    0.0000 H   0  0  0  0  0  0  0  0  0  0  0  0
    0.5331   -2.3073    0.0000 H   0  0  0  0  0  0  0  0  0  0  0  0
    1.2476   -4.1943    0.0000 H   0  0  0  0  0  0  0  0  0  0  0  0
    1.9881   -4.1943    0.0000 H   0  0  0  0  0  0  0  0  0  0  0  0
    2.6765   -4.1943    0.0000 H   0  0  0  0  0  0  0  0  0  0  0  0
    3.4170   -4.1943    0.0000 H   0  0  0  0  0  0  0  0  0  0  0  0
    4.2146   -3.7338    0.0000 H   0  0  0  0  0  0  0  0  0  0  0  0
    4.5848   -3.0925    0.0000 H   0  0  0  0  0  0  0  0  0  0  0  0
    3.4170   -1.0698    0.0000 H   0  0  0  0  0  0  0  0  0  0  0  0
    2.6765   -1.0698    0.0000 H   0  0  0  0  0  0  0  0  0  0  0  0
    1.8789   -1.5303    0.0000 H   0  0  0  0  0  0  0  0  0  0  0  0
    1.5087   -2.1716    0.0000 H   0  0  0  0  0  0  0  0  0  0  0  0
  1  2  1  0  0  0  0
  2  3  1  0  0  0  0
  4  3  1  0  0  0  0
  5  4  1  0  0  0  0
  6  5  1  0  0  0  0
  7  6  1  0  0  0  0
  8  7  1  0  0  0  0
  1  9  1  0  0  0  0
  9 10  1  0  0  0  0
 10 11  1  0  0  0  0
 11 12  1  0  0  0  0
 13 12  1  0  0  0  0
 14 13  1  0  0  0  0
 15 14  1  0  0  0  0
 16 15  1  0  0  0  0
 17 16  1  0  0  0  0
  3  8  1  0  0  0  0
 12 17  1  0  0  0  0
  1 18  1  0  0  0  0
  1 19  1  0  0  0  0
  2 20  1  0  0  0  0
  2 21  1  0  0  0  0
  4 22  1  0  0  0  0
  4 23  1  0  0  0  0
  5 24  1  0  0  0  0
  5 25  1  0  0  0  0
  7 26  1  0  0  0  0
  7 27  1  0  0  0  0
  8 28  1  0  0  0  0
  8 29  1  0  0  0  0
 10 30  1  0  0  0  0
 10 31  1  0  0  0  0
 11 32  1  0  0  0  0
 11 33  1  0  0  0  0
 13 34  1  0  0  0  0
 13 35  1  0  0  0  0
 14 36  1  0  0  0  0
 14 37  1  0  0  0  0
 16 38  1  0  0  0  0
 16 39  1  0  0  0  0
 17 40  1  0  0  0  0
 17 41  1  0  0  0  0
M  END
>  <id_input>
2937

>  <InChIKey>
ZMSQJSMSLXVTKN-UHFFFAOYSA-N

>  <substance_name>
4-{2-[2-(morpholin-4-yl)ethoxy]ethyl}morpholine

>  <casrn>
6425-39-4

>  <Molecular weight>
244.33056640625

>  <guideline>
OECD Guideline 404 (Acute Dermal Irritation / Corrosion)

>  <species>
rabbit

>  <type_of_coverage>
semiocclusive

>  <max_duration(hrs)>
4.0

>  <vehicle>
unchanged (no vehicle)

>  <edema/ erythema score>
1.9

>  <max_score>
4.0

>  <reversibility>
0.0

>  <Outcome>
1

>  <StandardizerResult>
Remove Explicit Hydrogens (ID: RemoveExplicitH)
Clear Stereo (ID: ClearStereo)
Wedge Clean (ID: WedgeClean)
Mesomerize (ID: Mesomerize)
Tautomerize (ID: Tautomerize)
Add Explicit Hydrogens (ID: AddExplicitH)
Neutralize (ID: Neutralize)
Clean 2D (ID: Clean2D)


$$$$

  Mrv1812 02121911042D          

 38 39  0  0  0  0            999 V2000
    2.5519   -2.6074    0.0000 C   0  0  0  0  0  0  0  0  0  0  0  0
    2.1394   -1.8929    0.0000 C   0  0  0  0  0  0  0  0  0  0  0  0
    1.7269   -1.1784    0.0000 C   0  0  0  0  0  0  0  0  0  0  0  0
    1.4249   -2.3054    0.0000 C   0  0  0  0  0  0  0  0  0  0  0  0
    0.7105   -1.8929    0.0000 C   0  0  0  0  0  0  0  0  0  0  0  0
    0.7105   -1.0679    0.0000 C   0  0  0  0  0  0  0  0  0  0  0  0
   -0.0040   -2.3054    0.0000 C   0  0  0  0  0  0  0  0  0  0  0  0
   -0.7185   -1.8929    0.0000 C   0  0  0  0  0  0  0  0  0  0  0  0
   -1.4330   -2.3054    0.0000 C   0  0  0  0  0  0  0  0  0  0  0  0
   -1.4330   -3.1304    0.0000 C   0  0  0  0  0  0  0  0  0  0  0  0
   -0.7185   -3.5429    0.0000 C   0  0  0  0  0  0  0  0  0  0  0  0
   -0.0040   -3.1304    0.0000 C   0  0  0  0  0  0  0  0  0  0  0  0
    2.8539   -1.4804    0.0000 C   0  0  0  0  0  0  0  0  0  0  0  0
    3.5683   -1.8929    0.0000 C   0  0  0  0  0  0  0  0  0  0  0  0
    4.2828   -1.4804    0.0000 C   0  0  0  0  0  0  0  0  0  0  0  0
    4.2828   -0.6554    0.0000 C   0  0  0  0  0  0  0  0  0  0  0  0
    3.5683   -0.2429    0.0000 C   0  0  0  0  0  0  0  0  0  0  0  0
    2.8539   -0.6554    0.0000 C   0  0  0  0  0  0  0  0  0  0  0  0
    1.8374   -3.0199    0.0000 H   0  0  0  0  0  0  0  0  0  0  0  0
    2.9644   -3.3218    0.0000 H   0  0  0  0  0  0  0  0  0  0  0  0
    3.2664   -2.1949    0.0000 H   0  0  0  0  0  0  0  0  0  0  0  0
    2.4414   -0.7659    0.0000 H   0  0  0  0  0  0  0  0  0  0  0  0
    1.3144   -0.4640    0.0000 H   0  0  0  0  0  0  0  0  0  0  0  0
    1.0124   -1.5909    0.0000 H   0  0  0  0  0  0  0  0  0  0  0  0
    0.8416   -2.8888    0.0000 H   0  0  0  0  0  0  0  0  0  0  0  0
    2.2218   -2.5189    0.0000 H   0  0  0  0  0  0  0  0  0  0  0  0
    0.1531   -0.4597    0.0000 H   0  0  0  0  0  0  0  0  0  0  0  0
   -0.1138   -1.1039    0.0000 H   0  0  0  0  0  0  0  0  0  0  0  0
   -0.7185   -1.0679    0.0000 H   0  0  0  0  0  0  0  0  0  0  0  0
   -2.1474   -1.8929    0.0000 H   0  0  0  0  0  0  0  0  0  0  0  0
   -2.1474   -3.5429    0.0000 H   0  0  0  0  0  0  0  0  0  0  0  0
   -0.7185   -4.3679    0.0000 H   0  0  0  0  0  0  0  0  0  0  0  0
    0.3180   -3.8900    0.0000 H   0  0  0  0  0  0  0  0  0  0  0  0
    4.0706   -2.5474    0.0000 H   0  0  0  0  0  0  0  0  0  0  0  0
    4.9973   -1.8929    0.0000 H   0  0  0  0  0  0  0  0  0  0  0  0
    4.9973   -0.2429    0.0000 H   0  0  0  0  0  0  0  0  0  0  0  0
    3.5683    0.5821    0.0000 H   0  0  0  0  0  0  0  0  0  0  0  0
    2.5382    0.1068    0.0000 H   0  0  0  0  0  0  0  0  0  0  0  0
  1  2  1  0  0  0  0
  2  3  1  0  0  0  0
  2  4  1  0  0  0  0
  4  5  1  0  0  0  0
  5  6  2  0  0  0  0
  5  7  1  0  0  0  0
  8  7  4  0  0  0  0
  9  8  4  0  0  0  0
 10  9  4  0  0  0  0
 11 10  4  0  0  0  0
 12 11  4  0  0  0  0
  2 13  1  0  0  0  0
 14 13  4  0  0  0  0
 15 14  4  0  0  0  0
 16 15  4  0  0  0  0
 17 16  4  0  0  0  0
 18 17  4  0  0  0  0
  7 12  4  0  0  0  0
 13 18  4  0  0  0  0
  1 19  1  0  0  0  0
  1 20  1  0  0  0  0
  1 21  1  0  0  0  0
  3 22  1  0  0  0  0
  3 23  1  0  0  0  0
  3 24  1  0  0  0  0
  4 25  1  0  0  0  0
  4 26  1  0  0  0  0
  6 27  1  0  0  0  0
  6 28  1  0  0  0  0
  8 29  1  0  0  0  0
  9 30  1  0  0  0  0
 10 31  1  0  0  0  0
 11 32  1  0  0  0  0
 12 33  1  0  0  0  0
 14 34  1  0  0  0  0
 15 35  1  0  0  0  0
 16 36  1  0  0  0  0
 17 37  1  0  0  0  0
 18 38  1  0  0  0  0
M  END
>  <id_input>
118

>  <InChIKey>
ZOKCNEIWFQCSCM-UHFFFAOYSA-N

>  <substance_name>
(4-methyl-4-phenylpent-1-en-2-yl)benzene

>  <casrn>
6362-80-7

>  <Molecular weight>
236.35140991210938

>  <guideline>
EU Method B.4 (Acute Toxicity: Dermal Irritation / Corrosion)

>  <species>
rabbit

>  <type_of_coverage>
semiocclusive

>  <max_duration(hrs)>
4.0

>  <vehicle>
unchanged (no vehicle)

>  <edema/ erythema score>
2.0

>  <max_score>
4.0

>  <reversibility>
0.0

>  <Outcome>
1

>  <StandardizerResult>
Remove Explicit Hydrogens (ID: RemoveExplicitH)
Dearomatize (ID: Dearomatize)
Clear Stereo (ID: ClearStereo)
Wedge Clean (ID: WedgeClean)
Mesomerize (ID: Mesomerize)
Tautomerize (ID: Tautomerize)
Aromatize (ID: Aromatize)
Add Explicit Hydrogens (ID: AddExplicitH)
Neutralize (ID: Neutralize)
Clean 2D (ID: Clean2D)


$$$$

  Mrv1812 02121911042D          

 20 19  0  0  0  0            999 V2000
    3.9247    0.9967    0.0000 C   0  0  0  0  0  0  0  0  0  0  0  0
    3.0997    0.9967    0.0000 C   0  0  0  0  0  0  0  0  0  0  0  0
    2.6872    0.2822    0.0000 O   0  0  0  0  0  0  0  0  0  0  0  0
    1.8622    0.2822    0.0000 C   0  0  0  0  0  0  0  0  0  0  0  0
    1.4497    0.9967    0.0000 O   0  0  0  0  0  0  0  0  0  0  0  0
    1.4497   -0.4323    0.0000 C   0  0  0  0  0  0  0  0  0  0  0  0
    0.6247   -0.4323    0.0000 C   0  0  0  0  0  0  0  0  0  0  0  0
    0.2122   -1.1468    0.0000 N   0  0  0  0  0  0  0  0  0  0  0  0
    1.8622   -1.1468    0.0000 C   0  0  0  0  0  0  0  0  0  0  0  0
    3.9247    0.1717    0.0000 H   0  0  0  0  0  0  0  0  0  0  0  0
    4.7497    0.9967    0.0000 H   0  0  0  0  0  0  0  0  0  0  0  0
    3.9247    1.8217    0.0000 H   0  0  0  0  0  0  0  0  0  0  0  0
    3.0518    1.8203    0.0000 H   0  0  0  0  0  0  0  0  0  0  0  0
    2.4105    1.4500    0.0000 H   0  0  0  0  0  0  0  0  0  0  0  0
    0.2122    0.2822    0.0000 H   0  0  0  0  0  0  0  0  0  0  0  0
   -0.6128   -1.1468    0.0000 H   0  0  0  0  0  0  0  0  0  0  0  0
    0.6247   -1.8612    0.0000 H   0  0  0  0  0  0  0  0  0  0  0  0
    1.1478   -1.5593    0.0000 H   0  0  0  0  0  0  0  0  0  0  0  0
    2.2747   -1.8612    0.0000 H   0  0  0  0  0  0  0  0  0  0  0  0
    2.5767   -0.7343    0.0000 H   0  0  0  0  0  0  0  0  0  0  0  0
  1  2  1  0  0  0  0
  2  3  1  0  0  0  0
  3  4  1  0  0  0  0
  4  5  2  0  0  0  0
  4  6  1  0  0  0  0
  6  7  2  0  0  0  0
  7  8  1  0  0  0  0
  6  9  1  0  0  0  0
  1 10  1  0  0  0  0
  1 11  1  0  0  0  0
  1 12  1  0  0  0  0
  2 13  1  0  0  0  0
  2 14  1  0  0  0  0
  7 15  1  0  0  0  0
  8 16  1  0  0  0  0
  8 17  1  0  0  0  0
  9 18  1  0  0  0  0
  9 19  1  0  0  0  0
  9 20  1  0  0  0  0
M  END
>  <id_input>
1444

>  <InChIKey>
ZUBMZHJPTYYMRG-SNAWJCMRSA-N

>  <substance_name>
-

>  <casrn>
38109-77-2

>  <Molecular weight>
129.15704345703125

>  <guideline>
OECD Guideline 404 (Acute Dermal Irritation / Corrosion)

>  <species>
rabbit

>  <type_of_coverage>
semiocclusive

>  <max_duration(hrs)>
4.0

>  <vehicle>
unchanged (no vehicle)

>  <edema/ erythema score>
2.33333333333333

>  <max_score>
1.0

>  <reversibility>
0.0

>  <Outcome>
1

>  <StandardizerResult>
Remove Explicit Hydrogens (ID: RemoveExplicitH)
Clear Stereo (ID: ClearStereo)
Wedge Clean (ID: WedgeClean)
Mesomerize (ID: Mesomerize)
Tautomerize (ID: Tautomerize)
Add Explicit Hydrogens (ID: AddExplicitH)
Neutralize (ID: Neutralize)
Clean 2D (ID: Clean2D)


$$$$

  Mrv1812 02121911042D          

 19 18  0  0  0  0            999 V2000
    1.8268    1.8607    0.0000 C   0  0  0  0  0  0  0  0  0  0  0  0
    1.4143    1.1462    0.0000 C   0  0  0  0  0  0  0  0  0  0  0  0
    1.8268    0.4317    0.0000 C   0  0  0  0  0  0  0  0  0  0  0  0
    1.4143   -0.2827    0.0000 N   0  0  0  0  0  0  0  0  0  0  0  0
    1.8268   -0.9972    0.0000 C   0  0  0  0  0  0  0  0  0  0  0  0
    0.5893   -0.2827    0.0000 C   0  0  0  0  0  0  0  0  0  0  0  0
    2.5413    1.4482    0.0000 H   0  0  0  0  0  0  0  0  0  0  0  0
    2.2393    2.5751    0.0000 H   0  0  0  0  0  0  0  0  0  0  0  0
    1.1123    2.2732    0.0000 H   0  0  0  0  0  0  0  0  0  0  0  0
    0.6770    1.5165    0.0000 H   0  0  0  0  0  0  0  0  0  0  0  0
    0.6770    0.7759    0.0000 H   0  0  0  0  0  0  0  0  0  0  0  0
    2.5640    0.0615    0.0000 H   0  0  0  0  0  0  0  0  0  0  0  0
    2.5640    0.8020    0.0000 H   0  0  0  0  0  0  0  0  0  0  0  0
    1.1123   -1.4097    0.0000 H   0  0  0  0  0  0  0  0  0  0  0  0
    2.2393   -1.7117    0.0000 H   0  0  0  0  0  0  0  0  0  0  0  0
    2.5413   -0.5847    0.0000 H   0  0  0  0  0  0  0  0  0  0  0  0
    0.5893    0.5423    0.0000 H   0  0  0  0  0  0  0  0  0  0  0  0
   -0.2357   -0.2827    0.0000 H   0  0  0  0  0  0  0  0  0  0  0  0
    0.5893   -1.1077    0.0000 H   0  0  0  0  0  0  0  0  0  0  0  0
  1  2  1  0  0  0  0
  2  3  1  0  0  0  0
  3  4  1  0  0  0  0
  4  5  1  0  0  0  0
  4  6  1  0  0  0  0
  1  7  1  0  0  0  0
  1  8  1  0  0  0  0
  1  9  1  0  0  0  0
  2 10  1  0  0  0  0
  2 11  1  0  0  0  0
  3 12  1  0  0  0  0
  3 13  1  0  0  0  0
  5 14  1  0  0  0  0
  5 15  1  0  0  0  0
  5 16  1  0  0  0  0
  6 17  1  0  0  0  0
  6 18  1  0  0  0  0
  6 19  1  0  0  0  0
M  END
>  <id_input>
4184

>  <InChIKey>
ZUHZZVMEUAUWHY-UHFFFAOYSA-N

>  <substance_name>
dimethyl(propyl)amine

>  <casrn>
926-63-6

>  <Molecular weight>
87.16342163085938

>  <guideline>
OECD Guideline 404 (Acute Dermal Irritation / Corrosion)

>  <species>
rabbit

>  <type_of_coverage>
semiocclusive

>  <max_duration(hrs)>
4.0

>  <vehicle>
unchanged (no vehicle)

>  <edema/ erythema score>
2.225

>  <max_score>
4.0

>  <reversibility>
0.0

>  <Outcome>
1

>  <StandardizerResult>
Remove Explicit Hydrogens (ID: RemoveExplicitH)
Clear Stereo (ID: ClearStereo)
Wedge Clean (ID: WedgeClean)
Mesomerize (ID: Mesomerize)
Tautomerize (ID: Tautomerize)
Add Explicit Hydrogens (ID: AddExplicitH)
Neutralize (ID: Neutralize)
Clean 2D (ID: Clean2D)


$$$$

  Mrv1812 02121911042D          

 17 17  0  0  0  0            999 V2000
    1.5958    0.2024    0.0000 C   0  0  0  0  0  0  0  0  0  0  0  0
    0.8813   -0.2101    0.0000 C   0  0  0  0  0  0  0  0  0  0  0  0
    0.1668    0.2024    0.0000 C   0  0  0  0  0  0  0  0  0  0  0  0
    0.1668    1.0274    0.0000 N   0  0  0  0  0  0  0  0  0  0  0  0
   -0.5476   -0.2101    0.0000 C   0  0  0  0  0  0  0  0  0  0  0  0
   -0.5476   -1.0351    0.0000 C   0  0  0  0  0  0  0  0  0  0  0  0
    0.1668   -1.4476    0.0000 C   0  0  0  0  0  0  0  0  0  0  0  0
    0.8813   -1.0351    0.0000 C   0  0  0  0  0  0  0  0  0  0  0  0
    1.5958   -1.4476    0.0000 Cl  0  0  0  0  0  0  0  0  0  0  0  0
    2.0083   -0.5121    0.0000 H   0  0  0  0  0  0  0  0  0  0  0  0
    2.3102    0.6149    0.0000 H   0  0  0  0  0  0  0  0  0  0  0  0
    1.1833    0.9169    0.0000 H   0  0  0  0  0  0  0  0  0  0  0  0
    0.8813    1.4399    0.0000 H   0  0  0  0  0  0  0  0  0  0  0  0
   -0.5476    1.4399    0.0000 H   0  0  0  0  0  0  0  0  0  0  0  0
   -1.2621    0.2024    0.0000 H   0  0  0  0  0  0  0  0  0  0  0  0
   -1.2621   -1.4476    0.0000 H   0  0  0  0  0  0  0  0  0  0  0  0
    0.1668   -2.2726    0.0000 H   0  0  0  0  0  0  0  0  0  0  0  0
  1  2  1  0  0  0  0
  3  2  4  0  0  0  0
  3  4  1  0  0  0  0
  5  3  4  0  0  0  0
  6  5  4  0  0  0  0
  7  6  4  0  0  0  0
  8  7  4  0  0  0  0
  8  9  1  0  0  0  0
  2  8  4  0  0  0  0
  1 10  1  0  0  0  0
  1 11  1  0  0  0  0
  1 12  1  0  0  0  0
  4 13  1  0  0  0  0
  4 14  1  0  0  0  0
  5 15  1  0  0  0  0
  6 16  1  0  0  0  0
  7 17  1  0  0  0  0
M  END
>  <id_input>
2731

>  <InChIKey>
ZUVPLKVDZNDZCM-UHFFFAOYSA-N

>  <substance_name>
3-chloro-2-methylaniline

>  <casrn>
87-60-5

>  <Molecular weight>
141.59811401367188

>  <guideline>
OECD Guideline 404 (Acute Dermal Irritation / Corrosion)

>  <species>
rabbit

>  <type_of_coverage>
occlusive

>  <max_duration(hrs)>
4.0

>  <vehicle>
unchanged (no vehicle)

>  <edema/ erythema score>
1.7

>  <max_score>
4.0

>  <reversibility>
0.0

>  <Outcome>
1

>  <StandardizerResult>
Remove Explicit Hydrogens (ID: RemoveExplicitH)
Dearomatize (ID: Dearomatize)
Clear Stereo (ID: ClearStereo)
Wedge Clean (ID: WedgeClean)
Mesomerize (ID: Mesomerize)
Tautomerize (ID: Tautomerize)
Aromatize (ID: Aromatize)
Add Explicit Hydrogens (ID: AddExplicitH)
Neutralize (ID: Neutralize)
Clean 2D (ID: Clean2D)


$$$$

  Mrv1812 02121911042D          

102103  0  0  0  0            999 V2000
  -13.5353   -4.1344    0.0000 C   0  0  0  0  0  0  0  0  0  0  0  0
  -12.8208   -3.7219    0.0000 C   0  0  0  0  0  0  0  0  0  0  0  0
  -12.8208   -2.8969    0.0000 C   0  0  0  0  0  0  0  0  0  0  0  0
  -12.1064   -2.4844    0.0000 C   0  0  0  0  0  0  0  0  0  0  0  0
  -12.1064   -1.6594    0.0000 C   0  0  0  0  0  0  0  0  0  0  0  0
  -11.3919   -1.2469    0.0000 C   0  0  0  0  0  0  0  0  0  0  0  0
  -11.3919   -0.4219    0.0000 C   0  0  0  0  0  0  0  0  0  0  0  0
  -10.6774   -0.0094    0.0000 C   0  0  0  0  0  0  0  0  0  0  0  0
  -10.6774    0.8156    0.0000 N   0  0  0  0  0  0  0  0  0  0  0  0
   -9.9630    1.2281    0.0000 C   0  0  0  0  0  0  0  0  0  0  0  0
   -9.2485    0.8156    0.0000 C   0  0  0  0  0  0  0  0  0  0  0  0
   -8.5340    1.2281    0.0000 C   0  0  0  0  0  0  0  0  0  0  0  0
   -8.5340    2.0531    0.0000 N   0  0  0  0  0  0  0  0  0  0  0  0
   -7.8195    2.4656    0.0000 C   0  0  0  0  0  0  0  0  0  0  0  0
   -7.1051    2.0531    0.0000 C   0  0  0  0  0  0  0  0  0  0  0  0
   -6.3906    2.4656    0.0000 C   0  0  0  0  0  0  0  0  0  0  0  0
   -5.6761    2.0531    0.0000 C   0  0  0  0  0  0  0  0  0  0  0  0
   -4.9617    2.4656    0.0000 C   0  0  0  0  0  0  0  0  0  0  0  0
   -4.2472    2.0531    0.0000 C   0  0  0  0  0  0  0  0  0  0  0  0
   -3.5327    2.4656    0.0000 C   0  0  0  0  0  0  0  0  0  0  0  0
   -2.8182    2.0531    0.0000 C   0  0  0  0  0  0  0  0  0  0  0  0
   -2.1038    2.4656    0.0000 C   0  0  0  0  0  0  0  0  0  0  0  0
   -1.3893    2.0531    0.0000 C   0  0  0  0  0  0  0  0  0  0  0  0
   -0.6748    2.4656    0.0000 N   0  0  0  0  0  0  0  0  0  0  0  0
    0.0396    2.0531    0.0000 C   0  0  0  0  0  0  0  0  0  0  0  0
    0.7541    2.4656    0.0000 C   0  0  0  0  0  0  0  0  0  0  0  0
    0.7541    3.2906    0.0000 C   0  0  0  0  0  0  0  0  0  0  0  0
    0.0396    3.7031    0.0000 C   0  0  0  0  0  0  0  0  0  0  0  0
   -0.6748    3.2906    0.0000 C   0  0  0  0  0  0  0  0  0  0  0  0
    1.4686    3.7031    0.0000 N   0  0  0  0  0  0  0  0  0  0  0  0
    1.4686    4.5281    0.0000 C   0  0  0  0  0  0  0  0  0  0  0  0
    2.1831    4.9406    0.0000 C   0  0  0  0  0  0  0  0  0  0  0  0
    2.8975    4.5281    0.0000 C   0  0  0  0  0  0  0  0  0  0  0  0
    3.6120    4.9406    0.0000 C   0  0  0  0  0  0  0  0  0  0  0  0
    4.3265    4.5281    0.0000 C   0  0  0  0  0  0  0  0  0  0  0  0
    5.0409    4.9406    0.0000 C   0  0  0  0  0  0  0  0  0  0  0  0
    5.7554    4.5281    0.0000 C   0  0  0  0  0  0  0  0  0  0  0  0
    6.4699    4.9406    0.0000 C   0  0  0  0  0  0  0  0  0  0  0  0
   -9.2485    2.4656    0.0000 C   0  0  0  0  0  0  0  0  0  0  0  0
   -9.9630    2.0531    0.0000 C   0  0  0  0  0  0  0  0  0  0  0  0
  -13.9478   -3.4199    0.0000 H   0  0  0  0  0  0  0  0  0  0  0  0
  -14.2498   -4.5469    0.0000 H   0  0  0  0  0  0  0  0  0  0  0  0
  -13.1228   -4.8489    0.0000 H   0  0  0  0  0  0  0  0  0  0  0  0
  -12.3675   -4.4112    0.0000 H   0  0  0  0  0  0  0  0  0  0  0  0
  -11.9972   -3.7699    0.0000 H   0  0  0  0  0  0  0  0  0  0  0  0
  -13.2742   -2.2076    0.0000 H   0  0  0  0  0  0  0  0  0  0  0  0
  -13.6444   -2.8489    0.0000 H   0  0  0  0  0  0  0  0  0  0  0  0
  -11.6530   -3.1737    0.0000 H   0  0  0  0  0  0  0  0  0  0  0  0
  -11.2828   -2.5324    0.0000 H   0  0  0  0  0  0  0  0  0  0  0  0
  -12.5597   -0.9701    0.0000 H   0  0  0  0  0  0  0  0  0  0  0  0
  -12.9300   -1.6114    0.0000 H   0  0  0  0  0  0  0  0  0  0  0  0
  -10.9385   -1.9362    0.0000 H   0  0  0  0  0  0  0  0  0  0  0  0
  -10.5683   -1.2949    0.0000 H   0  0  0  0  0  0  0  0  0  0  0  0
  -11.8452    0.2674    0.0000 H   0  0  0  0  0  0  0  0  0  0  0  0
  -12.2155   -0.3739    0.0000 H   0  0  0  0  0  0  0  0  0  0  0  0
  -10.2241   -0.6987    0.0000 H   0  0  0  0  0  0  0  0  0  0  0  0
   -9.8538   -0.0574    0.0000 H   0  0  0  0  0  0  0  0  0  0  0  0
   -9.2485   -0.0094    0.0000 H   0  0  0  0  0  0  0  0  0  0  0  0
   -7.8195    0.8156    0.0000 H   0  0  0  0  0  0  0  0  0  0  0  0
   -7.4493    3.2028    0.0000 H   0  0  0  0  0  0  0  0  0  0  0  0
   -8.1898    3.2028    0.0000 H   0  0  0  0  0  0  0  0  0  0  0  0
   -7.4753    1.3159    0.0000 H   0  0  0  0  0  0  0  0  0  0  0  0
   -6.7348    1.3159    0.0000 H   0  0  0  0  0  0  0  0  0  0  0  0
   -6.0203    3.2028    0.0000 H   0  0  0  0  0  0  0  0  0  0  0  0
   -6.7609    3.2028    0.0000 H   0  0  0  0  0  0  0  0  0  0  0  0
   -6.0464    1.3159    0.0000 H   0  0  0  0  0  0  0  0  0  0  0  0
   -5.3059    1.3159    0.0000 H   0  0  0  0  0  0  0  0  0  0  0  0
   -4.5914    3.2028    0.0000 H   0  0  0  0  0  0  0  0  0  0  0  0
   -5.3319    3.2028    0.0000 H   0  0  0  0  0  0  0  0  0  0  0  0
   -4.6174    1.3159    0.0000 H   0  0  0  0  0  0  0  0  0  0  0  0
   -3.8769    1.3159    0.0000 H   0  0  0  0  0  0  0  0  0  0  0  0
   -3.1625    3.2028    0.0000 H   0  0  0  0  0  0  0  0  0  0  0  0
   -3.9030    3.2028    0.0000 H   0  0  0  0  0  0  0  0  0  0  0  0
   -3.1885    1.3159    0.0000 H   0  0  0  0  0  0  0  0  0  0  0  0
   -2.4480    1.3159    0.0000 H   0  0  0  0  0  0  0  0  0  0  0  0
   -1.7335    3.2028    0.0000 H   0  0  0  0  0  0  0  0  0  0  0  0
   -2.4740    3.2028    0.0000 H   0  0  0  0  0  0  0  0  0  0  0  0
   -1.7596    1.3159    0.0000 H   0  0  0  0  0  0  0  0  0  0  0  0
   -1.0190    1.3159    0.0000 H   0  0  0  0  0  0  0  0  0  0  0  0
    0.0396    1.2281    0.0000 H   0  0  0  0  0  0  0  0  0  0  0  0
    1.4686    2.0531    0.0000 H   0  0  0  0  0  0  0  0  0  0  0  0
    0.0396    4.5281    0.0000 H   0  0  0  0  0  0  0  0  0  0  0  0
   -1.3893    3.7031    0.0000 H   0  0  0  0  0  0  0  0  0  0  0  0
    1.0152    5.2174    0.0000 H   0  0  0  0  0  0  0  0  0  0  0  0
    0.6450    4.5761    0.0000 H   0  0  0  0  0  0  0  0  0  0  0  0
    2.5533    5.6778    0.0000 H   0  0  0  0  0  0  0  0  0  0  0  0
    1.8128    5.6778    0.0000 H   0  0  0  0  0  0  0  0  0  0  0  0
    2.5273    3.7909    0.0000 H   0  0  0  0  0  0  0  0  0  0  0  0
    3.2678    3.7909    0.0000 H   0  0  0  0  0  0  0  0  0  0  0  0
    3.9823    5.6778    0.0000 H   0  0  0  0  0  0  0  0  0  0  0  0
    3.2417    5.6778    0.0000 H   0  0  0  0  0  0  0  0  0  0  0  0
    3.9562    3.7909    0.0000 H   0  0  0  0  0  0  0  0  0  0  0  0
    4.6967    3.7909    0.0000 H   0  0  0  0  0  0  0  0  0  0  0  0
    5.4112    5.6778    0.0000 H   0  0  0  0  0  0  0  0  0  0  0  0
    4.6707    5.6778    0.0000 H   0  0  0  0  0  0  0  0  0  0  0  0
    5.3852    3.7909    0.0000 H   0  0  0  0  0  0  0  0  0  0  0  0
    6.1257    3.7909    0.0000 H   0  0  0  0  0  0  0  0  0  0  0  0
    6.8824    4.2261    0.0000 H   0  0  0  0  0  0  0  0  0  0  0  0
    7.1844    5.3531    0.0000 H   0  0  0  0  0  0  0  0  0  0  0  0
    6.0574    5.6551    0.0000 H   0  0  0  0  0  0  0  0  0  0  0  0
   -9.2485    3.2906    0.0000 H   0  0  0  0  0  0  0  0  0  0  0  0
  -10.6774    2.4656    0.0000 H   0  0  0  0  0  0  0  0  0  0  0  0
  1  2  1  0  0  0  0
  2  3  1  0  0  0  0
  3  4  1  0  0  0  0
  4  5  1  0  0  0  0
  5  6  1  0  0  0  0
  6  7  1  0  0  0  0
  7  8  1  0  0  0  0
  9  8  1  4  0  0  0
  9 10  2  0  0  0  0
 11 10  1  0  0  0  0
 12 11  2  0  0  0  0
 13 12  1  0  0  0  0
 13 14  1  0  0  0  0
 14 15  1  0  0  0  0
 15 16  1  0  0  0  0
 16 17  1  0  0  0  0
 17 18  1  0  0  0  0
 18 19  1  0  0  0  0
 19 20  1  0  0  0  0
 20 21  1  0  0  0  0
 21 22  1  0  0  0  0
 22 23  1  0  0  0  0
 23 24  1  0  0  0  0
 25 24  1  0  0  0  0
 26 25  2  0  0  0  0
 27 26  1  0  0  0  0
 28 27  1  0  0  0  0
 29 28  2  0  0  0  0
 27 30  2  0  0  0  0
 30 31  1  4  0  0  0
 31 32  1  0  0  0  0
 32 33  1  0  0  0  0
 33 34  1  0  0  0  0
 34 35  1  0  0  0  0
 35 36  1  0  0  0  0
 36 37  1  0  0  0  0
 37 38  1  0  0  0  0
 39 13  1  0  0  0  0
 40 39  2  0  0  0  0
 10 40  1  0  0  0  0
 24 29  1  0  0  0  0
  1 41  1  0  0  0  0
  1 42  1  0  0  0  0
  1 43  1  0  0  0  0
  2 44  1  0  0  0  0
  2 45  1  0  0  0  0
  3 46  1  0  0  0  0
  3 47  1  0  0  0  0
  4 48  1  0  0  0  0
  4 49  1  0  0  0  0
  5 50  1  0  0  0  0
  5 51  1  0  0  0  0
  6 52  1  0  0  0  0
  6 53  1  0  0  0  0
  7 54  1  0  0  0  0
  7 55  1  0  0  0  0
  8 56  1  0  0  0  0
  8 57  1  0  0  0  0
 11 58  1  0  0  0  0
 12 59  1  0  0  0  0
 14 60  1  0  0  0  0
 14 61  1  0  0  0  0
 15 62  1  0  0  0  0
 15 63  1  0  0  0  0
 16 64  1  0  0  0  0
 16 65  1  0  0  0  0
 17 66  1  0  0  0  0
 17 67  1  0  0  0  0
 18 68  1  0  0  0  0
 18 69  1  0  0  0  0
 19 70  1  0  0  0  0
 19 71  1  0  0  0  0
 20 72  1  0  0  0  0
 20 73  1  0  0  0  0
 21 74  1  0  0  0  0
 21 75  1  0  0  0  0
 22 76  1  0  0  0  0
 22 77  1  0  0  0  0
 23 78  1  0  0  0  0
 23 79  1  0  0  0  0
 25 80  1  0  0  0  0
 26 81  1  0  0  0  0
 28 82  1  0  0  0  0
 29 83  1  0  0  0  0
 31 84  1  0  0  0  0
 31 85  1  0  0  0  0
 32 86  1  0  0  0  0
 32 87  1  0  0  0  0
 33 88  1  0  0  0  0
 33 89  1  0  0  0  0
 34 90  1  0  0  0  0
 34 91  1  0  0  0  0
 35 92  1  0  0  0  0
 35 93  1  0  0  0  0
 36 94  1  0  0  0  0
 36 95  1  0  0  0  0
 37 96  1  0  0  0  0
 37 97  1  0  0  0  0
 38 98  1  0  0  0  0
 38 99  1  0  0  0  0
 38100  1  0  0  0  0
 39101  1  0  0  0  0
 40102  1  0  0  0  0
M  END
>  <id_input>
3489

>  <InChIKey>
ZVXNYZWXUADSRV-UHFFFAOYSA-N

>  <substance_name>
N-octyl-1-{10-[4-(octylimino)-1,4-dihydropyridin-1-yl]decyl}-1,4-dihydropyridin-4-imine dihydrochloride

>  <casrn>
70775-75-6

>  <Molecular weight>
550.904296875

>  <guideline>
OECD Guideline 404 (Acute Dermal Irritation / Corrosion)

>  <species>
rabbit

>  <type_of_coverage>
semiocclusive

>  <max_duration(hrs)>
4.0

>  <vehicle>
water

>  <edema/ erythema score>
2.6

>  <max_score>
3.0

>  <reversibility>
1.0

>  <Outcome>
1

>  <StandardizerResult>
Remove Explicit Hydrogens (ID: RemoveExplicitH)
Clear Stereo (ID: ClearStereo)
Wedge Clean (ID: WedgeClean)
Mesomerize (ID: Mesomerize)
Tautomerize (ID: Tautomerize)
Add Explicit Hydrogens (ID: AddExplicitH)
Neutralize (ID: Neutralize)
Clean 2D (ID: Clean2D)


$$$$

  Mrv1812 02121911042D          

 50 51  0  0  0  0            999 V2000
   -4.7091    3.1472    0.0000 C   0  0  0  0  0  0  0  0  0  0  0  0
   -3.9946    2.7347    0.0000 C   0  0  0  0  0  0  0  0  0  0  0  0
   -4.4071    2.0202    0.0000 C   0  0  0  0  0  0  0  0  0  0  0  0
   -3.5821    3.4491    0.0000 C   0  0  0  0  0  0  0  0  0  0  0  0
   -3.2801    2.3222    0.0000 C   0  0  0  0  0  0  0  0  0  0  0  0
   -3.2801    1.4972    0.0000 C   0  0  0  0  0  0  0  0  0  0  0  0
   -2.5657    1.0847    0.0000 C   0  0  0  0  0  0  0  0  0  0  0  0
   -1.8512    1.4972    0.0000 C   0  0  0  0  0  0  0  0  0  0  0  0
   -1.1367    1.0847    0.0000 O   0  0  0  0  0  0  0  0  0  0  0  0
   -1.1367    0.2597    0.0000 C   0  0  0  0  0  0  0  0  0  0  0  0
   -1.8512   -0.1528    0.0000 C   0  0  0  0  0  0  0  0  0  0  0  0
   -1.8512   -0.9778    0.0000 C   0  0  0  0  0  0  0  0  0  0  0  0
   -1.1367   -1.3903    0.0000 C   0  0  0  0  0  0  0  0  0  0  0  0
   -0.4223   -0.9778    0.0000 C   0  0  0  0  0  0  0  0  0  0  0  0
   -0.4223   -0.1528    0.0000 C   0  0  0  0  0  0  0  0  0  0  0  0
    0.2922    0.2597    0.0000 O   0  0  0  0  0  0  0  0  0  0  0  0
    1.0067   -0.1528    0.0000 S   0  0  0  0  0  0  0  0  0  0  0  0
    1.0067   -0.9778    0.0000 O   0  0  0  0  0  0  0  0  0  0  0  0
    1.7212    0.2597    0.0000 O   0  0  0  0  0  0  0  0  0  0  0  0
    2.4356   -0.1528    0.0000 C   0  0  0  0  0  0  0  0  0  0  0  0
    3.1501    0.2597    0.0000 C   0  0  0  0  0  0  0  0  0  0  0  0
    3.8646    0.6722    0.0000 C   0  0  0  0  0  0  0  0  0  0  0  0
   -1.8512    2.3222    0.0000 C   0  0  0  0  0  0  0  0  0  0  0  0
   -2.5657    2.7347    0.0000 C   0  0  0  0  0  0  0  0  0  0  0  0
   -4.2966    3.8616    0.0000 H   0  0  0  0  0  0  0  0  0  0  0  0
   -5.4236    3.5597    0.0000 H   0  0  0  0  0  0  0  0  0  0  0  0
   -5.1216    2.4327    0.0000 H   0  0  0  0  0  0  0  0  0  0  0  0
   -5.0616    1.5180    0.0000 H   0  0  0  0  0  0  0  0  0  0  0  0
   -4.1936    1.2233    0.0000 H   0  0  0  0  0  0  0  0  0  0  0  0
   -3.5892    1.9125    0.0000 H   0  0  0  0  0  0  0  0  0  0  0  0
   -3.0799    2.7946    0.0000 H   0  0  0  0  0  0  0  0  0  0  0  0
   -2.7852    3.6627    0.0000 H   0  0  0  0  0  0  0  0  0  0  0  0
   -3.4744    4.2671    0.0000 H   0  0  0  0  0  0  0  0  0  0  0  0
   -3.3758    0.6777    0.0000 H   0  0  0  0  0  0  0  0  0  0  0  0
   -2.1741    0.3585    0.0000 H   0  0  0  0  0  0  0  0  0  0  0  0
   -1.8512    0.6722    0.0000 H   0  0  0  0  0  0  0  0  0  0  0  0
   -2.6437   -0.3821    0.0000 H   0  0  0  0  0  0  0  0  0  0  0  0
   -1.1367   -0.5653    0.0000 H   0  0  0  0  0  0  0  0  0  0  0  0
   -2.6748   -1.0258    0.0000 H   0  0  0  0  0  0  0  0  0  0  0  0
   -2.3045   -1.6671    0.0000 H   0  0  0  0  0  0  0  0  0  0  0  0
   -1.5070   -2.1276    0.0000 H   0  0  0  0  0  0  0  0  0  0  0  0
   -0.7665   -2.1276    0.0000 H   0  0  0  0  0  0  0  0  0  0  0  0
    0.0311   -1.6671    0.0000 H   0  0  0  0  0  0  0  0  0  0  0  0
    0.4013   -1.0258    0.0000 H   0  0  0  0  0  0  0  0  0  0  0  0
    0.2922   -0.5653    0.0000 H   0  0  0  0  0  0  0  0  0  0  0  0
    2.0654   -0.8901    0.0000 H   0  0  0  0  0  0  0  0  0  0  0  0
    2.8059   -0.8901    0.0000 H   0  0  0  0  0  0  0  0  0  0  0  0
    4.5790    1.0847    0.0000 H   0  0  0  0  0  0  0  0  0  0  0  0
   -1.1367    2.7347    0.0000 H   0  0  0  0  0  0  0  0  0  0  0  0
   -1.9038    3.2272    0.0000 H   0  0  0  0  0  0  0  0  0  0  0  0
  1  2  1  0  0  0  0
  2  3  1  0  0  0  0
  2  4  1  0  0  0  0
  2  5  1  0  0  0  0
  6  5  4  0  0  0  0
  7  6  4  0  0  0  0
  8  7  4  0  0  0  0
  8  9  1  0  0  0  0
  9 10  1  0  0  0  0
 11 10  1  0  0  0  0
 12 11  1  0  0  0  0
 13 12  1  0  0  0  0
 14 13  1  0  0  0  0
 15 14  1  0  0  0  0
 15 16  1  0  0  0  0
 16 17  1  0  0  0  0
 17 18  2  0  0  0  0
 17 19  1  0  0  0  0
 19 20  1  0  0  0  0
 20 21  1  0  0  0  0
 21 22  3  0  0  0  0
 23  8  4  0  0  0  0
 24 23  4  0  0  0  0
  5 24  4  0  0  0  0
 10 15  1  0  0  0  0
  1 25  1  0  0  0  0
  1 26  1  0  0  0  0
  1 27  1  0  0  0  0
  3 28  1  0  0  0  0
  3 29  1  0  0  0  0
  3 30  1  0  0  0  0
  4 31  1  0  0  0  0
  4 32  1  0  0  0  0
  4 33  1  0  0  0  0
  6 34  1  0  0  0  0
  7 35  1  0  0  0  0
 10 36  1  0  0  0  0
 11 37  1  0  0  0  0
 11 38  1  0  0  0  0
 12 39  1  0  0  0  0
 12 40  1  0  0  0  0
 13 41  1  0  0  0  0
 13 42  1  0  0  0  0
 14 43  1  0  0  0  0
 14 44  1  0  0  0  0
 15 45  1  0  0  0  0
 20 46  1  0  0  0  0
 20 47  1  0  0  0  0
 22 48  1  0  0  0  0
 23 49  1  0  0  0  0
 24 50  1  0  0  0  0
M  END
>  <id_input>
2202

>  <InChIKey>
ZYHMJXZULPZUED-UHFFFAOYSA-N

>  <substance_name>
2-(4-tert-butylphenoxy)cyclohexyl prop-2-yn-1-yl sulfite

>  <casrn>
2312-35-8

>  <Molecular weight>
350.47235107421875

>  <guideline>
EPA OPP 81-5 (Acute Dermal Irritation)

>  <species>
rabbit

>  <type_of_coverage>
semiocclusive

>  <max_duration(hrs)>
4.0

>  <vehicle>
unchanged (no vehicle)

>  <edema/ erythema score>
3.0

>  <max_score>
4.0

>  <reversibility>
1.0

>  <Outcome>
1

>  <StandardizerResult>
Remove Explicit Hydrogens (ID: RemoveExplicitH)
Dearomatize (ID: Dearomatize)
Clear Stereo (ID: ClearStereo)
Wedge Clean (ID: WedgeClean)
Mesomerize (ID: Mesomerize)
Tautomerize (ID: Tautomerize)
Aromatize (ID: Aromatize)
Add Explicit Hydrogens (ID: AddExplicitH)
Neutralize (ID: Neutralize)
Clean 2D (ID: Clean2D)


$$$$

  Mrv1812 02121911042D          

 44 43  0  0  0  0            999 V2000
    0.0001    0.0000    0.0000 C   0  0  0  0  0  0  0  0  0  0  0  0
    0.7146    0.4125    0.0000 C   0  0  0  0  0  0  0  0  0  0  0  0
    1.4290    0.0000    0.0000 C   0  0  0  0  0  0  0  0  0  0  0  0
    2.1435    0.4125    0.0000 C   0  0  0  0  0  0  0  0  0  0  0  0
    2.8580    0.0000    0.0000 C   0  0  0  0  0  0  0  0  0  0  0  0
    3.5724    0.4125    0.0000 C   0  0  0  0  0  0  0  0  0  0  0  0
    4.2869    0.0000    0.0000 C   0  0  0  0  0  0  0  0  0  0  0  0
    5.0014    0.4125    0.0000 C   0  0  0  0  0  0  0  0  0  0  0  0
    5.7159    0.0000    0.0000 C   0  0  0  0  0  0  0  0  0  0  0  0
    6.4303    0.4125    0.0000 C   0  0  0  0  0  0  0  0  0  0  0  0
    7.1448    0.0000    0.0000 C   0  0  0  0  0  0  0  0  0  0  0  0
    7.8593    0.4125    0.0000 C   0  0  0  0  0  0  0  0  0  0  0  0
    8.5737    0.0000    0.0000 C   0  0  0  0  0  0  0  0  0  0  0  0
    9.2882    0.4125    0.0000 C   0  0  0  0  0  0  0  0  0  0  0  0
   -0.4124    0.7145    0.0000 H   0  0  0  0  0  0  0  0  0  0  0  0
   -0.7144   -0.4125    0.0000 H   0  0  0  0  0  0  0  0  0  0  0  0
    0.4126   -0.7145    0.0000 H   0  0  0  0  0  0  0  0  0  0  0  0
    1.0848    1.1497    0.0000 H   0  0  0  0  0  0  0  0  0  0  0  0
    0.3443    1.1497    0.0000 H   0  0  0  0  0  0  0  0  0  0  0  0
    1.0588   -0.7372    0.0000 H   0  0  0  0  0  0  0  0  0  0  0  0
    1.7993   -0.7372    0.0000 H   0  0  0  0  0  0  0  0  0  0  0  0
    2.5138    1.1497    0.0000 H   0  0  0  0  0  0  0  0  0  0  0  0
    1.7732    1.1497    0.0000 H   0  0  0  0  0  0  0  0  0  0  0  0
    2.4877   -0.7372    0.0000 H   0  0  0  0  0  0  0  0  0  0  0  0
    3.2282   -0.7372    0.0000 H   0  0  0  0  0  0  0  0  0  0  0  0
    3.9427    1.1497    0.0000 H   0  0  0  0  0  0  0  0  0  0  0  0
    3.2022    1.1497    0.0000 H   0  0  0  0  0  0  0  0  0  0  0  0
    3.9167   -0.7372    0.0000 H   0  0  0  0  0  0  0  0  0  0  0  0
    4.6572   -0.7372    0.0000 H   0  0  0  0  0  0  0  0  0  0  0  0
    5.3716    1.1497    0.0000 H   0  0  0  0  0  0  0  0  0  0  0  0
    4.6311    1.1497    0.0000 H   0  0  0  0  0  0  0  0  0  0  0  0
    5.3456   -0.7372    0.0000 H   0  0  0  0  0  0  0  0  0  0  0  0
    6.0861   -0.7372    0.0000 H   0  0  0  0  0  0  0  0  0  0  0  0
    6.8006    1.1497    0.0000 H   0  0  0  0  0  0  0  0  0  0  0  0
    6.0601    1.1497    0.0000 H   0  0  0  0  0  0  0  0  0  0  0  0
    6.7745   -0.7372    0.0000 H   0  0  0  0  0  0  0  0  0  0  0  0
    7.5151   -0.7372    0.0000 H   0  0  0  0  0  0  0  0  0  0  0  0
    8.2295    1.1497    0.0000 H   0  0  0  0  0  0  0  0  0  0  0  0
    7.4890    1.1497    0.0000 H   0  0  0  0  0  0  0  0  0  0  0  0
    8.2035   -0.7372    0.0000 H   0  0  0  0  0  0  0  0  0  0  0  0
    8.9440   -0.7372    0.0000 H   0  0  0  0  0  0  0  0  0  0  0  0
    9.7007   -0.3020    0.0000 H   0  0  0  0  0  0  0  0  0  0  0  0
   10.0027    0.8250    0.0000 H   0  0  0  0  0  0  0  0  0  0  0  0
    8.8757    1.1270    0.0000 H   0  0  0  0  0  0  0  0  0  0  0  0
  1  2  1  0  0  0  0
  2  3  1  0  0  0  0
  3  4  1  0  0  0  0
  4  5  1  0  0  0  0
  5  6  1  0  0  0  0
  6  7  1  0  0  0  0
  7  8  1  0  0  0  0
  8  9  1  0  0  0  0
  9 10  1  0  0  0  0
 10 11  1  0  0  0  0
 11 12  1  0  0  0  0
 12 13  1  0  0  0  0
 13 14  1  0  0  0  0
  1 15  1  0  0  0  0
  1 16  1  0  0  0  0
  1 17  1  0  0  0  0
  2 18  1  0  0  0  0
  2 19  1  0  0  0  0
  3 20  1  0  0  0  0
  3 21  1  0  0  0  0
  4 22  1  0  0  0  0
  4 23  1  0  0  0  0
  5 24  1  0  0  0  0
  5 25  1  0  0  0  0
  6 26  1  0  0  0  0
  6 27  1  0  0  0  0
  7 28  1  0  0  0  0
  7 29  1  0  0  0  0
  8 30  1  0  0  0  0
  8 31  1  0  0  0  0
  9 32  1  0  0  0  0
  9 33  1  0  0  0  0
 10 34  1  0  0  0  0
 10 35  1  0  0  0  0
 11 36  1  0  0  0  0
 11 37  1  0  0  0  0
 12 38  1  0  0  0  0
 12 39  1  0  0  0  0
 13 40  1  0  0  0  0
 13 41  1  0  0  0  0
 14 42  1  0  0  0  0
 14 43  1  0  0  0  0
 14 44  1  0  0  0  0
M  END
>  <id_input>
5040, 5042, 5043, 5046, 5047

>  <InChIKey>
BGHCVCJVXZWKCC-UHFFFAOYSA-N

>  <substance_name>
tetradecane

>  <casrn>
629-59-4

>  <Molecular weight>
198.38800048828125

>  <guideline>
OECD Guideline 404 (Acute Dermal Irritation / Corrosion)

>  <species>
rabbit

>  <type_of_coverage>
semiocclusive

>  <max_duration(hrs)>
4.0

>  <vehicle>
unchanged (no vehicle)

>  <edema/ erythema score>
1.495

>  <max_score>
2.0

>  <reversibility>
0.0

>  <Outcome>
1

>  <StandardizerResult>
Remove Explicit Hydrogens (ID: RemoveExplicitH)
Clear Stereo (ID: ClearStereo)
Wedge Clean (ID: WedgeClean)
Mesomerize (ID: Mesomerize)
Tautomerize (ID: Tautomerize)
Add Explicit Hydrogens (ID: AddExplicitH)
Neutralize (ID: Neutralize)
Clean 2D (ID: Clean2D)


$$$$

  Mrv1812 02121911042D          

 32 31  0  0  0  0            999 V2000
   -0.0001    0.0000    0.0000 C   0  0  0  0  0  0  0  0  0  0  0  0
    0.7144    0.4125    0.0000 C   0  0  0  0  0  0  0  0  0  0  0  0
    1.4288    0.0000    0.0000 C   0  0  0  0  0  0  0  0  0  0  0  0
    2.1433    0.4125    0.0000 C   0  0  0  0  0  0  0  0  0  0  0  0
    2.8578    0.0000    0.0000 C   0  0  0  0  0  0  0  0  0  0  0  0
    3.5722    0.4125    0.0000 C   0  0  0  0  0  0  0  0  0  0  0  0
    4.2867    0.0000    0.0000 C   0  0  0  0  0  0  0  0  0  0  0  0
    5.0012    0.4125    0.0000 C   0  0  0  0  0  0  0  0  0  0  0  0
    5.7157    0.0000    0.0000 C   0  0  0  0  0  0  0  0  0  0  0  0
    6.4301    0.4125    0.0000 C   0  0  0  0  0  0  0  0  0  0  0  0
   -0.4126    0.7145    0.0000 H   0  0  0  0  0  0  0  0  0  0  0  0
   -0.7146   -0.4125    0.0000 H   0  0  0  0  0  0  0  0  0  0  0  0
    0.4124   -0.7145    0.0000 H   0  0  0  0  0  0  0  0  0  0  0  0
    1.0846    1.1497    0.0000 H   0  0  0  0  0  0  0  0  0  0  0  0
    0.3441    1.1497    0.0000 H   0  0  0  0  0  0  0  0  0  0  0  0
    1.0586   -0.7372    0.0000 H   0  0  0  0  0  0  0  0  0  0  0  0
    1.7991   -0.7372    0.0000 H   0  0  0  0  0  0  0  0  0  0  0  0
    2.5136    1.1497    0.0000 H   0  0  0  0  0  0  0  0  0  0  0  0
    1.7730    1.1497    0.0000 H   0  0  0  0  0  0  0  0  0  0  0  0
    2.4875   -0.7372    0.0000 H   0  0  0  0  0  0  0  0  0  0  0  0
    3.2280   -0.7372    0.0000 H   0  0  0  0  0  0  0  0  0  0  0  0
    3.9425    1.1497    0.0000 H   0  0  0  0  0  0  0  0  0  0  0  0
    3.2020    1.1497    0.0000 H   0  0  0  0  0  0  0  0  0  0  0  0
    3.9165   -0.7372    0.0000 H   0  0  0  0  0  0  0  0  0  0  0  0
    4.6570   -0.7372    0.0000 H   0  0  0  0  0  0  0  0  0  0  0  0
    5.3714    1.1497    0.0000 H   0  0  0  0  0  0  0  0  0  0  0  0
    4.6309    1.1497    0.0000 H   0  0  0  0  0  0  0  0  0  0  0  0
    5.3454   -0.7372    0.0000 H   0  0  0  0  0  0  0  0  0  0  0  0
    6.0859   -0.7372    0.0000 H   0  0  0  0  0  0  0  0  0  0  0  0
    6.8426   -0.3020    0.0000 H   0  0  0  0  0  0  0  0  0  0  0  0
    7.1446    0.8250    0.0000 H   0  0  0  0  0  0  0  0  0  0  0  0
    6.0176    1.1270    0.0000 H   0  0  0  0  0  0  0  0  0  0  0  0
  1  2  1  0  0  0  0
  2  3  1  0  0  0  0
  3  4  1  0  0  0  0
  4  5  1  0  0  0  0
  5  6  1  0  0  0  0
  6  7  1  0  0  0  0
  7  8  1  0  0  0  0
  8  9  1  0  0  0  0
  9 10  1  0  0  0  0
  1 11  1  0  0  0  0
  1 12  1  0  0  0  0
  1 13  1  0  0  0  0
  2 14  1  0  0  0  0
  2 15  1  0  0  0  0
  3 16  1  0  0  0  0
  3 17  1  0  0  0  0
  4 18  1  0  0  0  0
  4 19  1  0  0  0  0
  5 20  1  0  0  0  0
  5 21  1  0  0  0  0
  6 22  1  0  0  0  0
  6 23  1  0  0  0  0
  7 24  1  0  0  0  0
  7 25  1  0  0  0  0
  8 26  1  0  0  0  0
  8 27  1  0  0  0  0
  9 28  1  0  0  0  0
  9 29  1  0  0  0  0
 10 30  1  0  0  0  0
 10 31  1  0  0  0  0
 10 32  1  0  0  0  0
M  END
>  <id_input>
4085, 4087, 4089, 4093, 4091

>  <InChIKey>
DIOQZVSQGTUSAI-UHFFFAOYSA-N

>  <substance_name>
decane

>  <casrn>
124-18-5

>  <Molecular weight>
142.28167724609375

>  <guideline>
OECD Guideline 404 (Acute Dermal Irritation / Corrosion)

>  <species>
rabbit

>  <type_of_coverage>
semiocclusive

>  <max_duration(hrs)>
4.0

>  <vehicle>
unchanged (no vehicle)

>  <edema/ erythema score>
1.495

>  <max_score>
2.0

>  <reversibility>
0.0

>  <Outcome>
1

>  <StandardizerResult>
Remove Explicit Hydrogens (ID: RemoveExplicitH)
Clear Stereo (ID: ClearStereo)
Wedge Clean (ID: WedgeClean)
Mesomerize (ID: Mesomerize)
Tautomerize (ID: Tautomerize)
Add Explicit Hydrogens (ID: AddExplicitH)
Neutralize (ID: Neutralize)
Clean 2D (ID: Clean2D)


$$$$

  Mrv1812 02121911042D          

 41 40  0  0  0  0            999 V2000
    0.0001    0.3943    0.0000 C   0  0  0  0  0  0  0  0  0  0  0  0
    0.7146   -0.0182    0.0000 C   0  0  0  0  0  0  0  0  0  0  0  0
    1.4290    0.3943    0.0000 C   0  0  0  0  0  0  0  0  0  0  0  0
    2.1435   -0.0182    0.0000 C   0  0  0  0  0  0  0  0  0  0  0  0
    2.8580    0.3943    0.0000 C   0  0  0  0  0  0  0  0  0  0  0  0
    3.5725   -0.0182    0.0000 C   0  0  0  0  0  0  0  0  0  0  0  0
    4.2869    0.3943    0.0000 C   0  0  0  0  0  0  0  0  0  0  0  0
    5.0014   -0.0182    0.0000 C   0  0  0  0  0  0  0  0  0  0  0  0
    5.7159    0.3943    0.0000 C   0  0  0  0  0  0  0  0  0  0  0  0
    6.4303   -0.0182    0.0000 C   0  0  0  0  0  0  0  0  0  0  0  0
    7.1448    0.3943    0.0000 C   0  0  0  0  0  0  0  0  0  0  0  0
    7.8593   -0.0182    0.0000 C   0  0  0  0  0  0  0  0  0  0  0  0
    8.5738    0.3943    0.0000 C   0  0  0  0  0  0  0  0  0  0  0  0
    0.4126    1.1088    0.0000 H   0  0  0  0  0  0  0  0  0  0  0  0
   -0.7144    0.8068    0.0000 H   0  0  0  0  0  0  0  0  0  0  0  0
   -0.4124   -0.3201    0.0000 H   0  0  0  0  0  0  0  0  0  0  0  0
    0.3443   -0.7554    0.0000 H   0  0  0  0  0  0  0  0  0  0  0  0
    1.0848   -0.7554    0.0000 H   0  0  0  0  0  0  0  0  0  0  0  0
    1.7993    1.1316    0.0000 H   0  0  0  0  0  0  0  0  0  0  0  0
    1.0588    1.1316    0.0000 H   0  0  0  0  0  0  0  0  0  0  0  0
    1.7733   -0.7554    0.0000 H   0  0  0  0  0  0  0  0  0  0  0  0
    2.5138   -0.7554    0.0000 H   0  0  0  0  0  0  0  0  0  0  0  0
    3.2282    1.1316    0.0000 H   0  0  0  0  0  0  0  0  0  0  0  0
    2.4877    1.1316    0.0000 H   0  0  0  0  0  0  0  0  0  0  0  0
    3.2022   -0.7554    0.0000 H   0  0  0  0  0  0  0  0  0  0  0  0
    3.9427   -0.7554    0.0000 H   0  0  0  0  0  0  0  0  0  0  0  0
    4.6572    1.1316    0.0000 H   0  0  0  0  0  0  0  0  0  0  0  0
    3.9167    1.1316    0.0000 H   0  0  0  0  0  0  0  0  0  0  0  0
    4.6311   -0.7554    0.0000 H   0  0  0  0  0  0  0  0  0  0  0  0
    5.3717   -0.7554    0.0000 H   0  0  0  0  0  0  0  0  0  0  0  0
    6.0861    1.1316    0.0000 H   0  0  0  0  0  0  0  0  0  0  0  0
    5.3456    1.1316    0.0000 H   0  0  0  0  0  0  0  0  0  0  0  0
    6.0601   -0.7554    0.0000 H   0  0  0  0  0  0  0  0  0  0  0  0
    6.8006   -0.7554    0.0000 H   0  0  0  0  0  0  0  0  0  0  0  0
    7.5151    1.1316    0.0000 H   0  0  0  0  0  0  0  0  0  0  0  0
    6.7746    1.1316    0.0000 H   0  0  0  0  0  0  0  0  0  0  0  0
    7.4890   -0.7554    0.0000 H   0  0  0  0  0  0  0  0  0  0  0  0
    8.2295   -0.7554    0.0000 H   0  0  0  0  0  0  0  0  0  0  0  0
    8.9863   -0.3201    0.0000 H   0  0  0  0  0  0  0  0  0  0  0  0
    9.2882    0.8068    0.0000 H   0  0  0  0  0  0  0  0  0  0  0  0
    8.1613    1.1088    0.0000 H   0  0  0  0  0  0  0  0  0  0  0  0
  1  2  1  0  0  0  0
  2  3  1  0  0  0  0
  3  4  1  0  0  0  0
  4  5  1  0  0  0  0
  5  6  1  0  0  0  0
  6  7  1  0  0  0  0
  7  8  1  0  0  0  0
  8  9  1  0  0  0  0
  9 10  1  0  0  0  0
 10 11  1  0  0  0  0
 11 12  1  0  0  0  0
 12 13  1  0  0  0  0
  1 14  1  0  0  0  0
  1 15  1  0  0  0  0
  1 16  1  0  0  0  0
  2 17  1  0  0  0  0
  2 18  1  0  0  0  0
  3 19  1  0  0  0  0
  3 20  1  0  0  0  0
  4 21  1  0  0  0  0
  4 22  1  0  0  0  0
  5 23  1  0  0  0  0
  5 24  1  0  0  0  0
  6 25  1  0  0  0  0
  6 26  1  0  0  0  0
  7 27  1  0  0  0  0
  7 28  1  0  0  0  0
  8 29  1  0  0  0  0
  8 30  1  0  0  0  0
  9 31  1  0  0  0  0
  9 32  1  0  0  0  0
 10 33  1  0  0  0  0
 10 34  1  0  0  0  0
 11 35  1  0  0  0  0
 11 36  1  0  0  0  0
 12 37  1  0  0  0  0
 12 38  1  0  0  0  0
 13 39  1  0  0  0  0
 13 40  1  0  0  0  0
 13 41  1  0  0  0  0
M  END
>  <id_input>
5114, 5117, 5118, 5119, 5123

>  <InChIKey>
IIYFAKIEWZDVMP-UHFFFAOYSA-N

>  <substance_name>
tridecane

>  <casrn>
629-50-5

>  <Molecular weight>
184.36141967773438

>  <guideline>
OECD Guideline 404 (Acute Dermal Irritation / Corrosion)

>  <species>
rabbit

>  <type_of_coverage>
semiocclusive

>  <max_duration(hrs)>
4.0

>  <vehicle>
unchanged (no vehicle)

>  <edema/ erythema score>
1.495

>  <max_score>
2.0

>  <reversibility>
0.0

>  <Outcome>
1

>  <StandardizerResult>
Remove Explicit Hydrogens (ID: RemoveExplicitH)
Clear Stereo (ID: ClearStereo)
Wedge Clean (ID: WedgeClean)
Mesomerize (ID: Mesomerize)
Tautomerize (ID: Tautomerize)
Add Explicit Hydrogens (ID: AddExplicitH)
Neutralize (ID: Neutralize)
Clean 2D (ID: Clean2D)


$$$$

  Mrv1812 02121911042D          

 22 22  0  0  0  0            999 V2000
    2.0730    0.5346    0.0000 N   0  0  0  0  0  0  0  0  0  0  0  0
    1.3585    0.9471    0.0000 C   0  0  0  0  0  0  0  0  0  0  0  0
    0.6440    0.5346    0.0000 C   0  0  0  0  0  0  0  0  0  0  0  0
   -0.0704    0.9471    0.0000 C   0  0  0  0  0  0  0  0  0  0  0  0
   -0.7849    0.5346    0.0000 C   0  0  0  0  0  0  0  0  0  0  0  0
   -0.7849   -0.2904    0.0000 C   0  0  0  0  0  0  0  0  0  0  0  0
   -1.4994   -0.7029    0.0000 C   0  0  0  0  0  0  0  0  0  0  0  0
   -1.4994   -1.5279    0.0000 N   0  0  0  0  0  0  0  0  0  0  0  0
   -0.0704   -0.7029    0.0000 C   0  0  0  0  0  0  0  0  0  0  0  0
    0.6440   -0.2904    0.0000 C   0  0  0  0  0  0  0  0  0  0  0  0
    2.0730   -0.2904    0.0000 H   0  0  0  0  0  0  0  0  0  0  0  0
    2.7874    0.9471    0.0000 H   0  0  0  0  0  0  0  0  0  0  0  0
    1.7288    1.6843    0.0000 H   0  0  0  0  0  0  0  0  0  0  0  0
    0.9882    1.6843    0.0000 H   0  0  0  0  0  0  0  0  0  0  0  0
   -0.0704    1.7721    0.0000 H   0  0  0  0  0  0  0  0  0  0  0  0
   -1.4994    0.9471    0.0000 H   0  0  0  0  0  0  0  0  0  0  0  0
   -1.9527   -0.0136    0.0000 H   0  0  0  0  0  0  0  0  0  0  0  0
   -2.3230   -0.6549    0.0000 H   0  0  0  0  0  0  0  0  0  0  0  0
   -2.2139   -1.9404    0.0000 H   0  0  0  0  0  0  0  0  0  0  0  0
   -0.7849   -1.9404    0.0000 H   0  0  0  0  0  0  0  0  0  0  0  0
   -0.0704   -1.5279    0.0000 H   0  0  0  0  0  0  0  0  0  0  0  0
    1.3585   -0.7029    0.0000 H   0  0  0  0  0  0  0  0  0  0  0  0
  1  2  1  0  0  0  0
  2  3  1  0  0  0  0
  4  3  4  0  0  0  0
  5  4  4  0  0  0  0
  6  5  4  0  0  0  0
  6  7  1  0  0  0  0
  7  8  1  0  0  0  0
  9  6  4  0  0  0  0
 10  9  4  0  0  0  0
  3 10  4  0  0  0  0
  1 11  1  0  0  0  0
  1 12  1  0  0  0  0
  2 13  1  0  0  0  0
  2 14  1  0  0  0  0
  4 15  1  0  0  0  0
  5 16  1  0  0  0  0
  7 17  1  0  0  0  0
  7 18  1  0  0  0  0
  8 19  1  0  0  0  0
  8 20  1  0  0  0  0
  9 21  1  0  0  0  0
 10 22  1  0  0  0  0
M  END
>  <id_input>
3819, 3820, 3818

>  <InChIKey>
ISKQADXMHQSTHK-UHFFFAOYSA-N

>  <substance_name>
[4-(aminomethyl)phenyl]methanamine

>  <casrn>
539-48-0

>  <Molecular weight>
136.19427490234375

>  <species>
rabbit

>  <type_of_coverage>
occlusive

>  <max_duration(hrs)>
2.0

>  <vehicle>
water

>  <edema/ erythema score>
2.1666666666666665

>  <max_score>
3.0

>  <reversibility>
0.6666666666666666

>  <Outcome>
1

>  <StandardizerResult>
Remove Explicit Hydrogens (ID: RemoveExplicitH)
Dearomatize (ID: Dearomatize)
Clear Stereo (ID: ClearStereo)
Wedge Clean (ID: WedgeClean)
Mesomerize (ID: Mesomerize)
Tautomerize (ID: Tautomerize)
Aromatize (ID: Aromatize)
Add Explicit Hydrogens (ID: AddExplicitH)
Neutralize (ID: Neutralize)
Clean 2D (ID: Clean2D)


$$$$

  Mrv1812 02121911042D          

 39 40  0  0  0  0            999 V2000
    0.3946    2.3533    0.0000 O   0  0  0  0  0  0  0  0  0  0  0  0
    0.6495    1.5686    0.0000 Si  0  0  0  0  0  4  0  0  0  0  0  0
    0.9045    0.7840    0.0000 O   0  0  0  0  0  0  0  0  0  0  0  0
    0.3524    0.1709    0.0000 C   0  0  0  0  0  0  0  0  0  0  0  0
   -0.1351    1.3137    0.0000 C   0  0  0  0  0  0  0  0  0  0  0  0
   -0.8025    1.7986    0.0000 C   0  0  0  0  0  0  0  0  0  0  0  0
   -1.4700    1.3137    0.0000 C   0  0  0  0  0  0  0  0  0  0  0  0
   -1.2150    0.5291    0.0000 C   0  0  0  0  0  0  0  0  0  0  0  0
   -0.3900    0.5291    0.0000 C   0  0  0  0  0  0  0  0  0  0  0  0
    1.4342    1.8236    0.0000 C   0  0  0  0  0  0  0  0  0  0  0  0
    2.1016    1.3387    0.0000 C   0  0  0  0  0  0  0  0  0  0  0  0
    2.7690    1.8236    0.0000 C   0  0  0  0  0  0  0  0  0  0  0  0
    2.5141    2.6082    0.0000 C   0  0  0  0  0  0  0  0  0  0  0  0
    1.6891    2.6082    0.0000 C   0  0  0  0  0  0  0  0  0  0  0  0
    0.9466    2.9664    0.0000 C   0  0  0  0  0  0  0  0  0  0  0  0
   -0.3004   -0.3334    0.0000 H   0  0  0  0  0  0  0  0  0  0  0  0
    0.5116   -0.6386    0.0000 H   0  0  0  0  0  0  0  0  0  0  0  0
    1.1477   -0.0487    0.0000 H   0  0  0  0  0  0  0  0  0  0  0  0
   -0.0060    2.1286    0.0000 H   0  0  0  0  0  0  0  0  0  0  0  0
   -0.9138    2.6161    0.0000 H   0  0  0  0  0  0  0  0  0  0  0  0
   -1.4414    2.3206    0.0000 H   0  0  0  0  0  0  0  0  0  0  0  0
   -2.0431    1.9072    0.0000 H   0  0  0  0  0  0  0  0  0  0  0  0
   -2.2824    1.1704    0.0000 H   0  0  0  0  0  0  0  0  0  0  0  0
   -1.9565    0.1674    0.0000 H   0  0  0  0  0  0  0  0  0  0  0  0
   -1.3298   -0.2879    0.0000 H   0  0  0  0  0  0  0  0  0  0  0  0
   -0.9424   -0.0837    0.0000 H   0  0  0  0  0  0  0  0  0  0  0  0
   -0.8749    1.1965    0.0000 H   0  0  0  0  0  0  0  0  0  0  0  0
    1.3051    1.0087    0.0000 H   0  0  0  0  0  0  0  0  0  0  0  0
    2.2128    0.5212    0.0000 H   0  0  0  0  0  0  0  0  0  0  0  0
    2.7405    0.8167    0.0000 H   0  0  0  0  0  0  0  0  0  0  0  0
    3.3421    1.2301    0.0000 H   0  0  0  0  0  0  0  0  0  0  0  0
    3.5815    1.9668    0.0000 H   0  0  0  0  0  0  0  0  0  0  0  0
    3.2556    2.9699    0.0000 H   0  0  0  0  0  0  0  0  0  0  0  0
    2.6289    3.4252    0.0000 H   0  0  0  0  0  0  0  0  0  0  0  0
    2.2036    3.2531    0.0000 H   0  0  0  0  0  0  0  0  0  0  0  0
    1.5059    3.4126    0.0000 H   0  0  0  0  0  0  0  0  0  0  0  0
    0.6343    3.7299    0.0000 H   0  0  0  0  0  0  0  0  0  0  0  0
    0.2030    3.3236    0.0000 H   0  0  0  0  0  0  0  0  0  0  0  0
    1.1058    2.1569    0.0000 H   0  0  0  0  0  0  0  0  0  0  0  0
  1  2  1  0  0  0  0
  2  3  1  0  0  0  0
  3  4  1  0  0  0  0
  2  5  1  0  0  0  0
  6  5  1  0  0  0  0
  7  6  1  0  0  0  0
  8  7  1  0  0  0  0
  9  8  1  0  0  0  0
  2 10  1  0  0  0  0
 11 10  1  0  0  0  0
 12 11  1  0  0  0  0
 13 12  1  0  0  0  0
 14 13  1  0  0  0  0
  1 15  1  0  0  0  0
  5  9  1  0  0  0  0
 10 14  1  0  0  0  0
  4 16  1  0  0  0  0
  4 17  1  0  0  0  0
  4 18  1  0  0  0  0
  5 19  1  0  0  0  0
  6 20  1  0  0  0  0
  6 21  1  0  0  0  0
  7 22  1  0  0  0  0
  7 23  1  0  0  0  0
  8 24  1  0  0  0  0
  8 25  1  0  0  0  0
  9 26  1  0  0  0  0
  9 27  1  0  0  0  0
 10 28  1  0  0  0  0
 11 29  1  0  0  0  0
 11 30  1  0  0  0  0
 12 31  1  0  0  0  0
 12 32  1  0  0  0  0
 13 33  1  0  0  0  0
 13 34  1  0  0  0  0
 14 35  1  0  0  0  0
 14 36  1  0  0  0  0
 15 37  1  0  0  0  0
 15 38  1  0  0  0  0
 15 39  1  0  0  0  0
M  END
>  <id_input>
4142, 4143, 4144

>  <InChIKey>
JWCYDYZLEAQGJJ-UHFFFAOYSA-N

>  <substance_name>
dicyclopentyldimethoxysilane

>  <casrn>
126990-35-0

>  <Molecular weight>
228.40325927734375

>  <guideline>
OECD Guideline 404 (Acute Dermal Irritation / Corrosion)

>  <species>
rabbit

>  <type_of_coverage>
semiocclusive

>  <max_duration(hrs)>
4.0

>  <vehicle>
unchanged (no vehicle)

>  <edema/ erythema score>
1.81111111111111

>  <max_score>
4.0

>  <reversibility>
0.0

>  <Outcome>
1

>  <StandardizerResult>
Remove Explicit Hydrogens (ID: RemoveExplicitH)
Clear Stereo (ID: ClearStereo)
Wedge Clean (ID: WedgeClean)
Mesomerize (ID: Mesomerize)
Tautomerize (ID: Tautomerize)
Add Explicit Hydrogens (ID: AddExplicitH)
Neutralize (ID: Neutralize)
Clean 2D (ID: Clean2D)


$$$$

  Mrv1812 02121911042D          

 35 34  0  0  0  0            999 V2000
   -0.0000    0.3912    0.0000 C   0  0  0  0  0  0  0  0  0  0  0  0
    0.7145   -0.0213    0.0000 C   0  0  0  0  0  0  0  0  0  0  0  0
    1.4289    0.3912    0.0000 C   0  0  0  0  0  0  0  0  0  0  0  0
    2.1434   -0.0213    0.0000 C   0  0  0  0  0  0  0  0  0  0  0  0
    2.8579    0.3912    0.0000 C   0  0  0  0  0  0  0  0  0  0  0  0
    3.5723   -0.0213    0.0000 C   0  0  0  0  0  0  0  0  0  0  0  0
    4.2868    0.3912    0.0000 C   0  0  0  0  0  0  0  0  0  0  0  0
    5.0013   -0.0213    0.0000 C   0  0  0  0  0  0  0  0  0  0  0  0
    5.7158    0.3912    0.0000 C   0  0  0  0  0  0  0  0  0  0  0  0
    6.4302   -0.0213    0.0000 C   0  0  0  0  0  0  0  0  0  0  0  0
    7.1447    0.3912    0.0000 C   0  0  0  0  0  0  0  0  0  0  0  0
    0.4125    1.1057    0.0000 H   0  0  0  0  0  0  0  0  0  0  0  0
   -0.7145    0.8037    0.0000 H   0  0  0  0  0  0  0  0  0  0  0  0
   -0.4125   -0.3233    0.0000 H   0  0  0  0  0  0  0  0  0  0  0  0
    0.3442   -0.7585    0.0000 H   0  0  0  0  0  0  0  0  0  0  0  0
    1.0847   -0.7585    0.0000 H   0  0  0  0  0  0  0  0  0  0  0  0
    1.7992    1.1284    0.0000 H   0  0  0  0  0  0  0  0  0  0  0  0
    1.0587    1.1284    0.0000 H   0  0  0  0  0  0  0  0  0  0  0  0
    1.7731   -0.7585    0.0000 H   0  0  0  0  0  0  0  0  0  0  0  0
    2.5137   -0.7585    0.0000 H   0  0  0  0  0  0  0  0  0  0  0  0
    3.2281    1.1284    0.0000 H   0  0  0  0  0  0  0  0  0  0  0  0
    2.4876    1.1284    0.0000 H   0  0  0  0  0  0  0  0  0  0  0  0
    3.2021   -0.7585    0.0000 H   0  0  0  0  0  0  0  0  0  0  0  0
    3.9426   -0.7585    0.0000 H   0  0  0  0  0  0  0  0  0  0  0  0
    4.6571    1.1284    0.0000 H   0  0  0  0  0  0  0  0  0  0  0  0
    3.9165    1.1284    0.0000 H   0  0  0  0  0  0  0  0  0  0  0  0
    4.6310   -0.7585    0.0000 H   0  0  0  0  0  0  0  0  0  0  0  0
    5.3715   -0.7585    0.0000 H   0  0  0  0  0  0  0  0  0  0  0  0
    6.0860    1.1284    0.0000 H   0  0  0  0  0  0  0  0  0  0  0  0
    5.3455    1.1284    0.0000 H   0  0  0  0  0  0  0  0  0  0  0  0
    6.0600   -0.7585    0.0000 H   0  0  0  0  0  0  0  0  0  0  0  0
    6.8005   -0.7585    0.0000 H   0  0  0  0  0  0  0  0  0  0  0  0
    7.5572   -0.3233    0.0000 H   0  0  0  0  0  0  0  0  0  0  0  0
    7.8592    0.8037    0.0000 H   0  0  0  0  0  0  0  0  0  0  0  0
    6.7322    1.1057    0.0000 H   0  0  0  0  0  0  0  0  0  0  0  0
  1  2  1  0  0  0  0
  2  3  1  0  0  0  0
  3  4  1  0  0  0  0
  4  5  1  0  0  0  0
  5  6  1  0  0  0  0
  6  7  1  0  0  0  0
  7  8  1  0  0  0  0
  8  9  1  0  0  0  0
  9 10  1  0  0  0  0
 10 11  1  0  0  0  0
  1 12  1  0  0  0  0
  1 13  1  0  0  0  0
  1 14  1  0  0  0  0
  2 15  1  0  0  0  0
  2 16  1  0  0  0  0
  3 17  1  0  0  0  0
  3 18  1  0  0  0  0
  4 19  1  0  0  0  0
  4 20  1  0  0  0  0
  5 21  1  0  0  0  0
  5 22  1  0  0  0  0
  6 23  1  0  0  0  0
  6 24  1  0  0  0  0
  7 25  1  0  0  0  0
  7 26  1  0  0  0  0
  8 27  1  0  0  0  0
  8 28  1  0  0  0  0
  9 29  1  0  0  0  0
  9 30  1  0  0  0  0
 10 31  1  0  0  0  0
 10 32  1  0  0  0  0
 11 33  1  0  0  0  0
 11 34  1  0  0  0  0
 11 35  1  0  0  0  0
M  END
>  <id_input>
5216, 5219, 5220, 5222, 5221

>  <InChIKey>
RSJKGSCJYJTIGS-UHFFFAOYSA-N

>  <substance_name>
undecane

>  <casrn>
1120-21-4

>  <Molecular weight>
156.30825805664062

>  <guideline>
OECD Guideline 404 (Acute Dermal Irritation / Corrosion)

>  <species>
rabbit

>  <type_of_coverage>
semiocclusive

>  <max_duration(hrs)>
4.0

>  <vehicle>
unchanged (no vehicle)

>  <edema/ erythema score>
1.495

>  <max_score>
2.0

>  <reversibility>
0.0

>  <Outcome>
1

>  <StandardizerResult>
Remove Explicit Hydrogens (ID: RemoveExplicitH)
Clear Stereo (ID: ClearStereo)
Wedge Clean (ID: WedgeClean)
Mesomerize (ID: Mesomerize)
Tautomerize (ID: Tautomerize)
Add Explicit Hydrogens (ID: AddExplicitH)
Neutralize (ID: Neutralize)
Clean 2D (ID: Clean2D)


$$$$

  Mrv1812 02121911042D          

 25 24  0  0  0  0            999 V2000
   -0.0645    0.0453    0.0000 C   0  0  0  0  0  0  0  0  0  0  0  0
    0.6500    0.4578    0.0000 C   0  0  0  0  0  0  0  0  0  0  0  0
    1.3645    0.0453    0.0000 C   0  0  0  0  0  0  0  0  0  0  0  0
    2.0789    0.4578    0.0000 C   0  0  0  0  0  0  0  0  0  0  0  0
    2.7934    0.0453    0.0000 O   0  0  0  0  0  0  0  0  0  0  0  0
    3.5079    0.4578    0.0000 C   0  0  0  0  0  0  0  0  0  0  0  0
    4.2223    0.0453    0.0000 C   0  0  0  0  0  0  0  0  0  0  0  0
    4.9368    0.4578    0.0000 C   0  0  0  0  0  0  0  0  0  0  0  0
    4.2223   -0.7797    0.0000 O   0  0  0  0  0  0  0  0  0  0  0  0
   -0.4770    0.7598    0.0000 H   0  0  0  0  0  0  0  0  0  0  0  0
   -0.7789   -0.3672    0.0000 H   0  0  0  0  0  0  0  0  0  0  0  0
    0.3480   -0.6692    0.0000 H   0  0  0  0  0  0  0  0  0  0  0  0
    1.0203    1.1950    0.0000 H   0  0  0  0  0  0  0  0  0  0  0  0
    0.2797    1.1950    0.0000 H   0  0  0  0  0  0  0  0  0  0  0  0
    0.9942   -0.6920    0.0000 H   0  0  0  0  0  0  0  0  0  0  0  0
    1.7347   -0.6920    0.0000 H   0  0  0  0  0  0  0  0  0  0  0  0
    2.4492    1.1950    0.0000 H   0  0  0  0  0  0  0  0  0  0  0  0
    1.7087    1.1950    0.0000 H   0  0  0  0  0  0  0  0  0  0  0  0
    3.8781    1.1950    0.0000 H   0  0  0  0  0  0  0  0  0  0  0  0
    3.1376    1.1950    0.0000 H   0  0  0  0  0  0  0  0  0  0  0  0
    4.2223    0.8703    0.0000 H   0  0  0  0  0  0  0  0  0  0  0  0
    5.1503   -0.3391    0.0000 H   0  0  0  0  0  0  0  0  0  0  0  0
    5.7618    0.4578    0.0000 H   0  0  0  0  0  0  0  0  0  0  0  0
    5.1503    1.2547    0.0000 H   0  0  0  0  0  0  0  0  0  0  0  0
    3.5079   -1.1922    0.0000 H   0  0  0  0  0  0  0  0  0  0  0  0
  1  2  1  0  0  0  0
  2  3  1  0  0  0  0
  3  4  1  0  0  0  0
  4  5  1  0  0  0  0
  5  6  1  0  0  0  0
  6  7  1  0  0  0  0
  7  8  1  0  0  0  0
  7  9  1  0  0  0  0
  1 10  1  0  0  0  0
  1 11  1  0  0  0  0
  1 12  1  0  0  0  0
  2 13  1  0  0  0  0
  2 14  1  0  0  0  0
  3 15  1  0  0  0  0
  3 16  1  0  0  0  0
  4 17  1  0  0  0  0
  4 18  1  0  0  0  0
  6 19  1  0  0  0  0
  6 20  1  0  0  0  0
  7 21  1  0  0  0  0
  8 22  1  0  0  0  0
  8 23  1  0  0  0  0
  8 24  1  0  0  0  0
  9 25  1  0  0  0  0
M  END
>  <id_input>
1903, 1904, 1907

>  <InChIKey>
RWNUSVWFHDHRCJ-UHFFFAOYSA-N

>  <substance_name>
1-butoxypropan-2-ol

>  <casrn>
5131-66-8

>  <Molecular weight>
132.20074462890625

>  <guideline>
OECD Guideline 404 (Acute Dermal Irritation / Corrosion)

>  <species>
rabbit

>  <type_of_coverage>
semiocclusive

>  <max_duration(hrs)>
4.0

>  <vehicle>
water

>  <edema/ erythema score>
1.7666666666666666

>  <max_score>
3.333333333333333

>  <reversibility>
0.0

>  <Outcome>
1

>  <StandardizerResult>
Remove Explicit Hydrogens (ID: RemoveExplicitH)
Clear Stereo (ID: ClearStereo)
Wedge Clean (ID: WedgeClean)
Mesomerize (ID: Mesomerize)
Tautomerize (ID: Tautomerize)
Add Explicit Hydrogens (ID: AddExplicitH)
Neutralize (ID: Neutralize)
Clean 2D (ID: Clean2D)


$$$$

  Mrv1812 02121911042D          

 38 37  0  0  0  0            999 V2000
   -0.0001    0.0000    0.0000 C   0  0  0  0  0  0  0  0  0  0  0  0
    0.7143    0.4125    0.0000 C   0  0  0  0  0  0  0  0  0  0  0  0
    1.4288    0.0000    0.0000 C   0  0  0  0  0  0  0  0  0  0  0  0
    2.1433    0.4125    0.0000 C   0  0  0  0  0  0  0  0  0  0  0  0
    2.8577    0.0000    0.0000 C   0  0  0  0  0  0  0  0  0  0  0  0
    3.5722    0.4125    0.0000 C   0  0  0  0  0  0  0  0  0  0  0  0
    4.2867    0.0000    0.0000 C   0  0  0  0  0  0  0  0  0  0  0  0
    5.0012    0.4125    0.0000 C   0  0  0  0  0  0  0  0  0  0  0  0
    5.7156   -0.0000    0.0000 C   0  0  0  0  0  0  0  0  0  0  0  0
    6.4301    0.4125    0.0000 C   0  0  0  0  0  0  0  0  0  0  0  0
    7.1446   -0.0000    0.0000 C   0  0  0  0  0  0  0  0  0  0  0  0
    7.8590    0.4125    0.0000 C   0  0  0  0  0  0  0  0  0  0  0  0
   -0.4126    0.7145    0.0000 H   0  0  0  0  0  0  0  0  0  0  0  0
   -0.7146   -0.4125    0.0000 H   0  0  0  0  0  0  0  0  0  0  0  0
    0.4124   -0.7145    0.0000 H   0  0  0  0  0  0  0  0  0  0  0  0
    1.0846    1.1497    0.0000 H   0  0  0  0  0  0  0  0  0  0  0  0
    0.3441    1.1497    0.0000 H   0  0  0  0  0  0  0  0  0  0  0  0
    1.0585   -0.7372    0.0000 H   0  0  0  0  0  0  0  0  0  0  0  0
    1.7991   -0.7372    0.0000 H   0  0  0  0  0  0  0  0  0  0  0  0
    2.5135    1.1497    0.0000 H   0  0  0  0  0  0  0  0  0  0  0  0
    1.7730    1.1497    0.0000 H   0  0  0  0  0  0  0  0  0  0  0  0
    2.4875   -0.7372    0.0000 H   0  0  0  0  0  0  0  0  0  0  0  0
    3.2280   -0.7372    0.0000 H   0  0  0  0  0  0  0  0  0  0  0  0
    3.9425    1.1497    0.0000 H   0  0  0  0  0  0  0  0  0  0  0  0
    3.2020    1.1497    0.0000 H   0  0  0  0  0  0  0  0  0  0  0  0
    3.9164   -0.7372    0.0000 H   0  0  0  0  0  0  0  0  0  0  0  0
    4.6569   -0.7372    0.0000 H   0  0  0  0  0  0  0  0  0  0  0  0
    5.3714    1.1497    0.0000 H   0  0  0  0  0  0  0  0  0  0  0  0
    4.6309    1.1497    0.0000 H   0  0  0  0  0  0  0  0  0  0  0  0
    5.3454   -0.7372    0.0000 H   0  0  0  0  0  0  0  0  0  0  0  0
    6.0859   -0.7372    0.0000 H   0  0  0  0  0  0  0  0  0  0  0  0
    6.8004    1.1497    0.0000 H   0  0  0  0  0  0  0  0  0  0  0  0
    6.0598    1.1497    0.0000 H   0  0  0  0  0  0  0  0  0  0  0  0
    6.7743   -0.7372    0.0000 H   0  0  0  0  0  0  0  0  0  0  0  0
    7.5148   -0.7372    0.0000 H   0  0  0  0  0  0  0  0  0  0  0  0
    8.2715   -0.3020    0.0000 H   0  0  0  0  0  0  0  0  0  0  0  0
    8.5735    0.8250    0.0000 H   0  0  0  0  0  0  0  0  0  0  0  0
    7.4465    1.1270    0.0000 H   0  0  0  0  0  0  0  0  0  0  0  0
  1  2  1  0  0  0  0
  2  3  1  0  0  0  0
  3  4  1  0  0  0  0
  4  5  1  0  0  0  0
  5  6  1  0  0  0  0
  6  7  1  0  0  0  0
  7  8  1  0  0  0  0
  8  9  1  0  0  0  0
  9 10  1  0  0  0  0
 10 11  1  0  0  0  0
 11 12  1  0  0  0  0
  1 13  1  0  0  0  0
  1 14  1  0  0  0  0
  1 15  1  0  0  0  0
  2 16  1  0  0  0  0
  2 17  1  0  0  0  0
  3 18  1  0  0  0  0
  3 19  1  0  0  0  0
  4 20  1  0  0  0  0
  4 21  1  0  0  0  0
  5 22  1  0  0  0  0
  5 23  1  0  0  0  0
  6 24  1  0  0  0  0
  6 25  1  0  0  0  0
  7 26  1  0  0  0  0
  7 27  1  0  0  0  0
  8 28  1  0  0  0  0
  8 29  1  0  0  0  0
  9 30  1  0  0  0  0
  9 31  1  0  0  0  0
 10 32  1  0  0  0  0
 10 33  1  0  0  0  0
 11 34  1  0  0  0  0
 11 35  1  0  0  0  0
 12 36  1  0  0  0  0
 12 37  1  0  0  0  0
 12 38  1  0  0  0  0
M  END
>  <id_input>
4291, 4294, 4295, 4296, 4297

>  <InChIKey>
SNRUBQQJIBEYMU-UHFFFAOYSA-N

>  <substance_name>
dodecane

>  <casrn>
112-40-3

>  <Molecular weight>
170.33483886718753

>  <guideline>
OECD Guideline 404 (Acute Dermal Irritation / Corrosion)

>  <species>
rabbit

>  <type_of_coverage>
semiocclusive

>  <max_duration(hrs)>
4.0

>  <vehicle>
unchanged (no vehicle)

>  <edema/ erythema score>
1.4949999999999999

>  <max_score>
2.0

>  <reversibility>
0.0

>  <Outcome>
1

>  <StandardizerResult>
Remove Explicit Hydrogens (ID: RemoveExplicitH)
Clear Stereo (ID: ClearStereo)
Wedge Clean (ID: WedgeClean)
Mesomerize (ID: Mesomerize)
Tautomerize (ID: Tautomerize)
Add Explicit Hydrogens (ID: AddExplicitH)
Neutralize (ID: Neutralize)
Clean 2D (ID: Clean2D)


$$$$

  Mrv1812 02121911042D          

 98 98  0  0  0  0            999 V2000
   -3.6623   -3.4036    0.0000 C   0  0  0  0  0  0  0  0  0  0  0  0
   -2.9478   -3.8161    0.0000 C   0  0  0  0  0  0  0  0  0  0  0  0
   -2.2334   -3.4036    0.0000 C   0  0  0  0  0  0  0  0  0  0  0  0
   -1.5189   -3.8161    0.0000 C   0  0  0  0  0  0  0  0  0  0  0  0
   -0.8044   -3.4036    0.0000 C   0  0  0  0  0  0  0  0  0  0  0  0
   -0.0899   -3.8161    0.0000 C   0  0  0  0  0  0  0  0  0  0  0  0
    0.6245   -3.4036    0.0000 C   0  0  0  0  0  0  0  0  0  0  0  0
    1.3390   -3.8161    0.0000 C   0  0  0  0  0  0  0  0  0  0  0  0
    2.0535   -3.4036    0.0000 C   0  0  0  0  0  0  0  0  0  0  0  0
    2.7679   -3.8161    0.0000 C   0  0  0  0  0  0  0  0  0  0  0  0
    3.4824   -3.4036    0.0000 C   0  0  0  0  0  0  0  0  0  0  0  0
    4.1969   -3.8161    0.0000 C   0  0  0  0  0  0  0  0  0  0  0  0
    4.9114   -3.4036    0.0000 C   0  0  0  0  0  0  0  0  0  0  0  0
    5.6258   -3.8161    0.0000 C   0  0  0  0  0  0  0  0  0  0  0  0
    6.3403   -3.4036    0.0000 C   0  0  0  0  0  0  0  0  0  0  0  0
    7.0548   -3.8161    0.0000 C   0  0  0  0  0  0  0  0  0  0  0  0
    7.0548   -4.6411    0.0000 O   0  0  0  0  0  0  0  0  0  0  0  0
    7.7692   -3.4036    0.0000 O   0  0  0  0  0  0  0  0  0  0  0  0
    8.4837   -3.8161    0.0000 C   0  0  0  0  0  0  0  0  0  0  0  0
    9.1982   -3.4036    0.0000 C   0  0  0  0  0  0  0  0  0  0  0  0
    9.9127   -3.8161    0.0000 C   0  0  0  0  0  0  0  0  0  0  0  0
    9.9127   -4.6411    0.0000 C   0  0  0  0  0  0  0  0  0  0  0  0
   10.6271   -3.4036    0.0000 C   0  0  0  0  0  0  0  0  0  0  0  0
   11.3416   -3.8161    0.0000 C   0  0  0  0  0  0  0  0  0  0  0  0
   12.0561   -3.4036    0.0000 C   0  0  0  0  0  0  0  0  0  0  0  0
   12.7705   -3.8161    0.0000 C   0  0  0  0  0  0  0  0  0  0  0  0
   12.7705   -4.6411    0.0000 C   0  0  0  0  0  0  0  0  0  0  0  0
   13.4850   -3.4036    0.0000 C   0  0  0  0  0  0  0  0  0  0  0  0
   14.1995   -3.8161    0.0000 C   0  0  0  0  0  0  0  0  0  0  0  0
   14.9140   -3.4036    0.0000 C   0  0  0  0  0  0  0  0  0  0  0  0
   15.6284   -3.8161    0.0000 C   0  0  0  0  0  0  0  0  0  0  0  0
   15.6284   -4.6411    0.0000 C   0  0  0  0  0  0  0  0  0  0  0  0
   16.3429   -3.4036    0.0000 C   0  0  0  0  0  0  0  0  0  0  0  0
   16.3429   -2.5786    0.0000 C   0  0  0  0  0  0  0  0  0  0  0  0
   15.6284   -2.1661    0.0000 C   0  0  0  0  0  0  0  0  0  0  0  0
   14.9140   -2.5786    0.0000 C   0  0  0  0  0  0  0  0  0  0  0  0
   14.6318   -1.8034    0.0000 C   0  0  0  0  0  0  0  0  0  0  0  0
   14.1015   -2.7219    0.0000 C   0  0  0  0  0  0  0  0  0  0  0  0
   -3.2498   -2.6891    0.0000 H   0  0  0  0  0  0  0  0  0  0  0  0
   -4.3768   -2.9911    0.0000 H   0  0  0  0  0  0  0  0  0  0  0  0
   -4.0748   -4.1181    0.0000 H   0  0  0  0  0  0  0  0  0  0  0  0
   -3.3181   -4.5534    0.0000 H   0  0  0  0  0  0  0  0  0  0  0  0
   -2.5776   -4.5534    0.0000 H   0  0  0  0  0  0  0  0  0  0  0  0
   -1.8631   -2.6664    0.0000 H   0  0  0  0  0  0  0  0  0  0  0  0
   -2.6036   -2.6664    0.0000 H   0  0  0  0  0  0  0  0  0  0  0  0
   -1.8891   -4.5534    0.0000 H   0  0  0  0  0  0  0  0  0  0  0  0
   -1.1486   -4.5534    0.0000 H   0  0  0  0  0  0  0  0  0  0  0  0
   -0.4342   -2.6664    0.0000 H   0  0  0  0  0  0  0  0  0  0  0  0
   -1.1747   -2.6664    0.0000 H   0  0  0  0  0  0  0  0  0  0  0  0
   -0.4602   -4.5534    0.0000 H   0  0  0  0  0  0  0  0  0  0  0  0
    0.2803   -4.5534    0.0000 H   0  0  0  0  0  0  0  0  0  0  0  0
    0.9948   -2.6664    0.0000 H   0  0  0  0  0  0  0  0  0  0  0  0
    0.2543   -2.6664    0.0000 H   0  0  0  0  0  0  0  0  0  0  0  0
    0.9687   -4.5534    0.0000 H   0  0  0  0  0  0  0  0  0  0  0  0
    1.7093   -4.5534    0.0000 H   0  0  0  0  0  0  0  0  0  0  0  0
    2.4237   -2.6664    0.0000 H   0  0  0  0  0  0  0  0  0  0  0  0
    1.6832   -2.6664    0.0000 H   0  0  0  0  0  0  0  0  0  0  0  0
    2.3977   -4.5534    0.0000 H   0  0  0  0  0  0  0  0  0  0  0  0
    3.1382   -4.5534    0.0000 H   0  0  0  0  0  0  0  0  0  0  0  0
    3.8527   -2.6664    0.0000 H   0  0  0  0  0  0  0  0  0  0  0  0
    3.1122   -2.6664    0.0000 H   0  0  0  0  0  0  0  0  0  0  0  0
    3.8266   -4.5534    0.0000 H   0  0  0  0  0  0  0  0  0  0  0  0
    4.5671   -4.5534    0.0000 H   0  0  0  0  0  0  0  0  0  0  0  0
    5.2816   -2.6664    0.0000 H   0  0  0  0  0  0  0  0  0  0  0  0
    4.5411   -2.6664    0.0000 H   0  0  0  0  0  0  0  0  0  0  0  0
    5.2556   -4.5534    0.0000 H   0  0  0  0  0  0  0  0  0  0  0  0
    5.9961   -4.5534    0.0000 H   0  0  0  0  0  0  0  0  0  0  0  0
    6.7106   -2.6664    0.0000 H   0  0  0  0  0  0  0  0  0  0  0  0
    5.9700   -2.6664    0.0000 H   0  0  0  0  0  0  0  0  0  0  0  0
    8.1135   -4.5534    0.0000 H   0  0  0  0  0  0  0  0  0  0  0  0
    8.8540   -4.5534    0.0000 H   0  0  0  0  0  0  0  0  0  0  0  0
    9.1982   -2.5786    0.0000 H   0  0  0  0  0  0  0  0  0  0  0  0
    9.0877   -4.6411    0.0000 H   0  0  0  0  0  0  0  0  0  0  0  0
    9.9127   -5.4661    0.0000 H   0  0  0  0  0  0  0  0  0  0  0  0
   10.7377   -4.6411    0.0000 H   0  0  0  0  0  0  0  0  0  0  0  0
   10.6271   -2.5786    0.0000 H   0  0  0  0  0  0  0  0  0  0  0  0
   11.3416   -4.6411    0.0000 H   0  0  0  0  0  0  0  0  0  0  0  0
   12.0561   -2.5786    0.0000 H   0  0  0  0  0  0  0  0  0  0  0  0
   11.9455   -4.6411    0.0000 H   0  0  0  0  0  0  0  0  0  0  0  0
   12.7705   -5.4661    0.0000 H   0  0  0  0  0  0  0  0  0  0  0  0
   13.5955   -4.6411    0.0000 H   0  0  0  0  0  0  0  0  0  0  0  0
   12.9665   -2.7619    0.0000 H   0  0  0  0  0  0  0  0  0  0  0  0
   14.1995   -4.6411    0.0000 H   0  0  0  0  0  0  0  0  0  0  0  0
   14.8034   -4.6411    0.0000 H   0  0  0  0  0  0  0  0  0  0  0  0
   15.6284   -5.4661    0.0000 H   0  0  0  0  0  0  0  0  0  0  0  0
   16.4534   -4.6411    0.0000 H   0  0  0  0  0  0  0  0  0  0  0  0
   16.7962   -4.0929    0.0000 H   0  0  0  0  0  0  0  0  0  0  0  0
   17.1665   -3.4516    0.0000 H   0  0  0  0  0  0  0  0  0  0  0  0
   17.1665   -2.5307    0.0000 H   0  0  0  0  0  0  0  0  0  0  0  0
   16.7962   -1.8893    0.0000 H   0  0  0  0  0  0  0  0  0  0  0  0
   15.9987   -1.4289    0.0000 H   0  0  0  0  0  0  0  0  0  0  0  0
   15.2582   -1.4289    0.0000 H   0  0  0  0  0  0  0  0  0  0  0  0
   14.5505   -0.9824    0.0000 H   0  0  0  0  0  0  0  0  0  0  0  0
   13.8544   -1.5271    0.0000 H   0  0  0  0  0  0  0  0  0  0  0  0
   14.0507   -2.3890    0.0000 H   0  0  0  0  0  0  0  0  0  0  0  0
   13.4536   -2.2111    0.0000 H   0  0  0  0  0  0  0  0  0  0  0  0
   13.2794   -2.7911    0.0000 H   0  0  0  0  0  0  0  0  0  0  0  0
   14.5007   -3.4439    0.0000 H   0  0  0  0  0  0  0  0  0  0  0  0
  1  2  1  0  0  0  0
  2  3  1  0  0  0  0
  3  4  1  0  0  0  0
  4  5  1  0  0  0  0
  5  6  1  0  0  0  0
  6  7  1  0  0  0  0
  7  8  1  0  0  0  0
  8  9  1  0  0  0  0
  9 10  1  0  0  0  0
 10 11  1  0  0  0  0
 11 12  1  0  0  0  0
 12 13  1  0  0  0  0
 13 14  1  0  0  0  0
 14 15  1  0  0  0  0
 15 16  1  0  0  0  0
 16 17  2  0  0  0  0
 16 18  1  0  0  0  0
 18 19  1  0  0  0  0
 20 19  1  4  0  0  0
 20 21  2  0  0  0  0
 21 22  1  0  0  0  0
 23 21  1  4  0  0  0
 23 24  2  0  0  0  0
 25 24  1  4  0  0  0
 25 26  2  0  0  0  0
 26 27  1  0  0  0  0
 28 26  1  4  0  0  0
 28 29  2  0  0  0  0
 29 30  1  0  0  0  0
 31 30  2  0  0  0  0
 31 32  1  0  0  0  0
 33 31  1  0  0  0  0
 34 33  1  0  0  0  0
 35 34  1  0  0  0  0
 36 35  1  0  0  0  0
 36 37  1  0  0  0  0
 36 38  1  0  0  0  0
 30 36  1  0  0  0  0
  1 39  1  0  0  0  0
  1 40  1  0  0  0  0
  1 41  1  0  0  0  0
  2 42  1  0  0  0  0
  2 43  1  0  0  0  0
  3 44  1  0  0  0  0
  3 45  1  0  0  0  0
  4 46  1  0  0  0  0
  4 47  1  0  0  0  0
  5 48  1  0  0  0  0
  5 49  1  0  0  0  0
  6 50  1  0  0  0  0
  6 51  1  0  0  0  0
  7 52  1  0  0  0  0
  7 53  1  0  0  0  0
  8 54  1  0  0  0  0
  8 55  1  0  0  0  0
  9 56  1  0  0  0  0
  9 57  1  0  0  0  0
 10 58  1  0  0  0  0
 10 59  1  0  0  0  0
 11 60  1  0  0  0  0
 11 61  1  0  0  0  0
 12 62  1  0  0  0  0
 12 63  1  0  0  0  0
 13 64  1  0  0  0  0
 13 65  1  0  0  0  0
 14 66  1  0  0  0  0
 14 67  1  0  0  0  0
 15 68  1  0  0  0  0
 15 69  1  0  0  0  0
 19 70  1  0  0  0  0
 19 71  1  0  0  0  0
 20 72  1  0  0  0  0
 22 73  1  0  0  0  0
 22 74  1  0  0  0  0
 22 75  1  0  0  0  0
 23 76  1  0  0  0  0
 24 77  1  0  0  0  0
 25 78  1  0  0  0  0
 27 79  1  0  0  0  0
 27 80  1  0  0  0  0
 27 81  1  0  0  0  0
 28 82  1  0  0  0  0
 29 83  1  0  0  0  0
 32 84  1  0  0  0  0
 32 85  1  0  0  0  0
 32 86  1  0  0  0  0
 33 87  1  0  0  0  0
 33 88  1  0  0  0  0
 34 89  1  0  0  0  0
 34 90  1  0  0  0  0
 35 91  1  0  0  0  0
 35 92  1  0  0  0  0
 37 93  1  0  0  0  0
 37 94  1  0  0  0  0
 37 95  1  0  0  0  0
 38 96  1  0  0  0  0
 38 97  1  0  0  0  0
 38 98  1  0  0  0  0
M  END
>  <id_input>
55, 56, 57

>  <InChIKey>
VYGQUTWHTHXGQB-UHFFFAOYSA-N

>  <substance_name>
(2E,4E,6E,8E)-3,7-dimethyl-9-(2,6,6-trimethylcyclohex-1-en-1-yl)nona-2,4,6,8-tetraen-1-yl hexadecanoate

>  <casrn>
79-81-2

>  <Molecular weight>
524.8604125976562

>  <guideline>
OECD Guideline 404 (Acute Dermal Irritation / Corrosion)

>  <species>
rabbit

>  <type_of_coverage>
semiocclusive

>  <max_duration(hrs)>
4.0

>  <vehicle>
unchanged (no vehicle)

>  <edema/ erythema score>
1.7333333333333332

>  <max_score>
4.0

>  <reversibility>
0.0

>  <Outcome>
1

>  <StandardizerResult>
Remove Explicit Hydrogens (ID: RemoveExplicitH)
Clear Stereo (ID: ClearStereo)
Wedge Clean (ID: WedgeClean)
Mesomerize (ID: Mesomerize)
Tautomerize (ID: Tautomerize)
Add Explicit Hydrogens (ID: AddExplicitH)
Neutralize (ID: Neutralize)
Clean 2D (ID: Clean2D)


$$$$

  Mrv1812 02121911042D          

 37 37  0  0  0  0            999 V2000
   -1.3250    1.0585    0.0000 C   0  0  0  0  0  0  0  0  0  0  0  0
   -0.6105    0.6460    0.0000 C   0  0  0  0  0  0  0  0  0  0  0  0
    0.1039    1.0585    0.0000 C   0  0  0  0  0  0  0  0  0  0  0  0
    0.8184    0.6460    0.0000 C   0  0  0  0  0  0  0  0  0  0  0  0
    1.5329    1.0585    0.0000 C   0  0  0  0  0  0  0  0  0  0  0  0
    2.2473    0.6460    0.0000 C   0  0  0  0  0  0  0  0  0  0  0  0
    2.9618    1.0585    0.0000 C   0  0  0  0  0  0  0  0  0  0  0  0
    3.6763    0.6460    0.0000 C   0  0  0  0  0  0  0  0  0  0  0  0
    4.3908    1.0585    0.0000 N   0  0  0  0  0  0  0  0  0  0  0  0
    5.1444    0.7229    0.0000 C   0  0  0  0  0  0  0  0  0  0  0  0
    5.6965    1.3360    0.0000 C   0  0  0  0  0  0  0  0  0  0  0  0
    5.2840    2.0505    0.0000 C   0  0  0  0  0  0  0  0  0  0  0  0
    4.4770    1.8789    0.0000 C   0  0  0  0  0  0  0  0  0  0  0  0
    3.8639    2.4310    0.0000 O   0  0  0  0  0  0  0  0  0  0  0  0
   -0.9125    1.7729    0.0000 H   0  0  0  0  0  0  0  0  0  0  0  0
   -2.0395    1.4710    0.0000 H   0  0  0  0  0  0  0  0  0  0  0  0
   -1.7375    0.3440    0.0000 H   0  0  0  0  0  0  0  0  0  0  0  0
   -0.9808   -0.0913    0.0000 H   0  0  0  0  0  0  0  0  0  0  0  0
   -0.2403   -0.0913    0.0000 H   0  0  0  0  0  0  0  0  0  0  0  0
    0.4742    1.7957    0.0000 H   0  0  0  0  0  0  0  0  0  0  0  0
   -0.2663    1.7957    0.0000 H   0  0  0  0  0  0  0  0  0  0  0  0
    0.4481   -0.0913    0.0000 H   0  0  0  0  0  0  0  0  0  0  0  0
    1.1887   -0.0913    0.0000 H   0  0  0  0  0  0  0  0  0  0  0  0
    1.9031    1.7957    0.0000 H   0  0  0  0  0  0  0  0  0  0  0  0
    1.1626    1.7957    0.0000 H   0  0  0  0  0  0  0  0  0  0  0  0
    1.8771   -0.0913    0.0000 H   0  0  0  0  0  0  0  0  0  0  0  0
    2.6176   -0.0913    0.0000 H   0  0  0  0  0  0  0  0  0  0  0  0
    3.3321    1.7957    0.0000 H   0  0  0  0  0  0  0  0  0  0  0  0
    2.5915    1.7957    0.0000 H   0  0  0  0  0  0  0  0  0  0  0  0
    3.3060   -0.0913    0.0000 H   0  0  0  0  0  0  0  0  0  0  0  0
    4.0465   -0.0913    0.0000 H   0  0  0  0  0  0  0  0  0  0  0  0
    4.9170   -0.0701    0.0000 H   0  0  0  0  0  0  0  0  0  0  0  0
    5.6747    0.0909    0.0000 H   0  0  0  0  0  0  0  0  0  0  0  0
    6.3804    0.8747    0.0000 H   0  0  0  0  0  0  0  0  0  0  0  0
    6.4614    1.6450    0.0000 H   0  0  0  0  0  0  0  0  0  0  0  0
    5.9341    2.5584    0.0000 H   0  0  0  0  0  0  0  0  0  0  0  0
    5.2264    2.8735    0.0000 H   0  0  0  0  0  0  0  0  0  0  0  0
  1  2  1  0  0  0  0
  2  3  1  0  0  0  0
  3  4  1  0  0  0  0
  4  5  1  0  0  0  0
  5  6  1  0  0  0  0
  6  7  1  0  0  0  0
  7  8  1  0  0  0  0
  8  9  1  0  0  0  0
 10  9  1  0  0  0  0
 11 10  1  0  0  0  0
 12 11  1  0  0  0  0
 13 12  1  0  0  0  0
 13 14  2  0  0  0  0
  9 13  1  0  0  0  0
  1 15  1  0  0  0  0
  1 16  1  0  0  0  0
  1 17  1  0  0  0  0
  2 18  1  0  0  0  0
  2 19  1  0  0  0  0
  3 20  1  0  0  0  0
  3 21  1  0  0  0  0
  4 22  1  0  0  0  0
  4 23  1  0  0  0  0
  5 24  1  0  0  0  0
  5 25  1  0  0  0  0
  6 26  1  0  0  0  0
  6 27  1  0  0  0  0
  7 28  1  0  0  0  0
  7 29  1  0  0  0  0
  8 30  1  0  0  0  0
  8 31  1  0  0  0  0
 10 32  1  0  0  0  0
 10 33  1  0  0  0  0
 11 34  1  0  0  0  0
 11 35  1  0  0  0  0
 12 36  1  0  0  0  0
 12 37  1  0  0  0  0
M  END
>  <id_input>
1954, 1956, 1955, 1957, 1958

>  <InChIKey>
WPPOGHDFAVQKLN-UHFFFAOYSA-N

>  <substance_name>
1-octylpyrrolidin-2-one

>  <casrn>
2687-94-7

>  <Molecular weight>
197.31712341308594

>  <guideline>
other: modification of that described by J.H. Draize

>  <species>
rabbit

>  <type_of_coverage>
occlusive

>  <max_duration(hrs)>
11.400000000000002

>  <vehicle>
water

>  <edema/ erythema score>
2.848

>  <max_score>
3.4000000000000004

>  <reversibility>
0.6000000000000001

>  <Outcome>
1

>  <StandardizerResult>
Remove Explicit Hydrogens (ID: RemoveExplicitH)
Clear Stereo (ID: ClearStereo)
Wedge Clean (ID: WedgeClean)
Mesomerize (ID: Mesomerize)
Tautomerize (ID: Tautomerize)
Add Explicit Hydrogens (ID: AddExplicitH)
Neutralize (ID: Neutralize)
Clean 2D (ID: Clean2D)


$$$$

  Mrv1812 02121911042D          

 42 41  0  0  0  0            999 V2000
   -1.9235    3.3833    0.0000 C   0  0  0  0  0  0  0  0  0  0  0  0
   -1.2090    2.9708    0.0000 C   0  0  0  0  0  0  0  0  0  0  0  0
   -1.2090    2.1458    0.0000 C   0  0  0  0  0  0  0  0  0  0  0  0
   -0.4946    3.3833    0.0000 C   0  0  0  0  0  0  0  0  0  0  0  0
    0.2199    2.9708    0.0000 C   0  0  0  0  0  0  0  0  0  0  0  0
    0.9344    3.3833    0.0000 C   0  0  0  0  0  0  0  0  0  0  0  0
    1.6488    2.9708    0.0000 C   0  0  0  0  0  0  0  0  0  0  0  0
    2.3633    3.3833    0.0000 C   0  0  0  0  0  0  0  0  0  0  0  0
    3.0778    2.9708    0.0000 C   0  0  0  0  0  0  0  0  0  0  0  0
    3.7923    3.3833    0.0000 C   0  0  0  0  0  0  0  0  0  0  0  0
    4.5067    2.9708    0.0000 C   0  0  0  0  0  0  0  0  0  0  0  0
    5.2212    3.3833    0.0000 C   0  0  0  0  0  0  0  0  0  0  0  0
    5.9357    2.9708    0.0000 C   0  0  0  0  0  0  0  0  0  0  0  0
    6.6501    3.3833    0.0000 O   0  0  0  0  0  0  0  0  0  0  0  0
   -1.5110    4.0978    0.0000 H   0  0  0  0  0  0  0  0  0  0  0  0
   -2.6380    3.7958    0.0000 H   0  0  0  0  0  0  0  0  0  0  0  0
   -2.3360    2.6688    0.0000 H   0  0  0  0  0  0  0  0  0  0  0  0
   -1.9235    2.5583    0.0000 H   0  0  0  0  0  0  0  0  0  0  0  0
   -1.7924    1.5624    0.0000 H   0  0  0  0  0  0  0  0  0  0  0  0
   -0.7965    1.4313    0.0000 H   0  0  0  0  0  0  0  0  0  0  0  0
   -0.4122    2.3593    0.0000 H   0  0  0  0  0  0  0  0  0  0  0  0
   -0.1243    4.1206    0.0000 H   0  0  0  0  0  0  0  0  0  0  0  0
   -0.8648    4.1206    0.0000 H   0  0  0  0  0  0  0  0  0  0  0  0
    0.7167    2.3122    0.0000 H   0  0  0  0  0  0  0  0  0  0  0  0
    0.2199    3.7958    0.0000 H   0  0  0  0  0  0  0  0  0  0  0  0
    1.5664    3.9136    0.0000 H   0  0  0  0  0  0  0  0  0  0  0  0
    1.0776    4.1958    0.0000 H   0  0  0  0  0  0  0  0  0  0  0  0
    1.2786    2.2336    0.0000 H   0  0  0  0  0  0  0  0  0  0  0  0
    2.0191    2.2336    0.0000 H   0  0  0  0  0  0  0  0  0  0  0  0
    3.0864    3.7806    0.0000 H   0  0  0  0  0  0  0  0  0  0  0  0
    2.3982    4.2076    0.0000 H   0  0  0  0  0  0  0  0  0  0  0  0
    2.7075    2.2336    0.0000 H   0  0  0  0  0  0  0  0  0  0  0  0
    3.4480    2.2336    0.0000 H   0  0  0  0  0  0  0  0  0  0  0  0
    4.4220    3.9163    0.0000 H   0  0  0  0  0  0  0  0  0  0  0  0
    3.9301    4.1967    0.0000 H   0  0  0  0  0  0  0  0  0  0  0  0
    4.1365    2.2336    0.0000 H   0  0  0  0  0  0  0  0  0  0  0  0
    4.8770    2.2336    0.0000 H   0  0  0  0  0  0  0  0  0  0  0  0
    5.9444    3.7803    0.0000 H   0  0  0  0  0  0  0  0  0  0  0  0
    5.2567    4.2075    0.0000 H   0  0  0  0  0  0  0  0  0  0  0  0
    5.5654    2.2336    0.0000 H   0  0  0  0  0  0  0  0  0  0  0  0
    6.3059    2.2336    0.0000 H   0  0  0  0  0  0  0  0  0  0  0  0
    7.4751    3.3879    0.0000 H   0  0  0  0  0  0  0  0  0  0  0  0
  1  2  1  0  0  0  0
  2  3  1  0  0  0  0
  2  4  1  0  0  0  0
  4  5  1  0  0  0  0
  5  6  1  0  0  0  0
  6  7  1  0  0  0  0
  7  8  1  0  0  0  0
  8  9  1  0  0  0  0
  9 10  1  0  0  0  0
 10 11  1  0  0  0  0
 11 12  1  0  0  0  0
 12 13  1  0  0  0  0
 13 14  1  0  0  0  0
  1 15  1  0  0  0  0
  1 16  1  0  0  0  0
  1 17  1  0  0  0  0
  2 18  1  0  0  0  0
  3 19  1  0  0  0  0
  3 20  1  0  0  0  0
  3 21  1  0  0  0  0
  4 22  1  0  0  0  0
  4 23  1  0  0  0  0
  5 24  1  0  0  0  0
  5 25  1  0  0  0  0
  6 26  1  0  0  0  0
  6 27  1  0  0  0  0
  7 28  1  0  0  0  0
  7 29  1  0  0  0  0
  8 30  1  0  0  0  0
  8 31  1  0  0  0  0
  9 32  1  0  0  0  0
  9 33  1  0  0  0  0
 10 34  1  0  0  0  0
 10 35  1  0  0  0  0
 11 36  1  0  0  0  0
 11 37  1  0  0  0  0
 12 38  1  0  0  0  0
 12 39  1  0  0  0  0
 13 40  1  0  0  0  0
 13 41  1  0  0  0  0
 14 42  1  0  0  0  0
M  END
>  <id_input>
3055, 3056, 2544

>  <InChIKey>
XUJLWPFSUCHPQL-UHFFFAOYSA-N

>  <substance_name>
Alcohols, C11-14-iso-, C13-rich

>  <casrn>
68526-86-3

>  <Molecular weight>
200.36082458496094

>  <guideline>
OECD Guideline 404 (Acute Dermal Irritation / Corrosion)

>  <species>
rabbit

>  <type_of_coverage>
semiocclusive

>  <max_duration(hrs)>
4.0

>  <vehicle>
unchanged (no vehicle)

>  <edema/ erythema score>
2.033333333333333

>  <max_score>
4.0

>  <reversibility>
0.3333333333333333

>  <Outcome>
1

>  <StandardizerResult>
Remove Explicit Hydrogens (ID: RemoveExplicitH)
Clear Stereo (ID: ClearStereo)
Wedge Clean (ID: WedgeClean)
Mesomerize (ID: Mesomerize)
Tautomerize (ID: Tautomerize)
Add Explicit Hydrogens (ID: AddExplicitH)
Neutralize (ID: Neutralize)
Clean 2D (ID: Clean2D)


$$$$

  Mrv1812 02121911042D          

 38 37  0  0  0  0            999 V2000
    0.1482    1.5697    0.0000 C   0  0  0  0  0  0  0  0  0  0  0  0
    0.8627    1.1572    0.0000 C   0  0  0  0  0  0  0  0  0  0  0  0
    0.8627    0.3322    0.0000 C   0  0  0  0  0  0  0  0  0  0  0  0
    0.1482   -0.0803    0.0000 C   0  0  0  0  0  0  0  0  0  0  0  0
   -0.5663   -0.4928    0.0000 C   0  0  0  0  0  0  0  0  0  0  0  0
    0.5607   -0.7948    0.0000 C   0  0  0  0  0  0  0  0  0  0  0  0
   -0.2643    0.6341    0.0000 C   0  0  0  0  0  0  0  0  0  0  0  0
    1.5772    1.5697    0.0000 C   0  0  0  0  0  0  0  0  0  0  0  0
    1.5772    2.3947    0.0000 C   0  0  0  0  0  0  0  0  0  0  0  0
    1.5772    3.2197    0.0000 C   0  0  0  0  0  0  0  0  0  0  0  0
    2.4022    2.3947    0.0000 C   0  0  0  0  0  0  0  0  0  0  0  0
    0.7522    2.3947    0.0000 C   0  0  0  0  0  0  0  0  0  0  0  0
    0.5607    2.2841    0.0000 H   0  0  0  0  0  0  0  0  0  0  0  0
   -0.5663    1.9822    0.0000 H   0  0  0  0  0  0  0  0  0  0  0  0
   -0.2643    0.8552    0.0000 H   0  0  0  0  0  0  0  0  0  0  0  0
    0.1482    0.7447    0.0000 H   0  0  0  0  0  0  0  0  0  0  0  0
    1.3160   -0.3571    0.0000 H   0  0  0  0  0  0  0  0  0  0  0  0
    1.6863    0.2842    0.0000 H   0  0  0  0  0  0  0  0  0  0  0  0
   -0.9788    0.2216    0.0000 H   0  0  0  0  0  0  0  0  0  0  0  0
   -1.2807   -0.9053    0.0000 H   0  0  0  0  0  0  0  0  0  0  0  0
   -0.1538   -1.2073    0.0000 H   0  0  0  0  0  0  0  0  0  0  0  0
    0.3475   -1.5918    0.0000 H   0  0  0  0  0  0  0  0  0  0  0  0
    0.9738   -1.5090    0.0000 H   0  0  0  0  0  0  0  0  0  0  0  0
    1.3579   -1.0074    0.0000 H   0  0  0  0  0  0  0  0  0  0  0  0
   -0.7946    1.2661    0.0000 H   0  0  0  0  0  0  0  0  0  0  0  0
   -1.0768    0.7774    0.0000 H   0  0  0  0  0  0  0  0  0  0  0  0
   -0.4778   -0.1628    0.0000 H   0  0  0  0  0  0  0  0  0  0  0  0
    2.0305    0.8804    0.0000 H   0  0  0  0  0  0  0  0  0  0  0  0
    2.4008    1.5217    0.0000 H   0  0  0  0  0  0  0  0  0  0  0  0
    2.4022    3.2197    0.0000 H   0  0  0  0  0  0  0  0  0  0  0  0
    1.5772    4.0447    0.0000 H   0  0  0  0  0  0  0  0  0  0  0  0
    0.7522    3.2197    0.0000 H   0  0  0  0  0  0  0  0  0  0  0  0
    2.9848    1.8106    0.0000 H   0  0  0  0  0  0  0  0  0  0  0  0
    3.2272    2.3940    0.0000 H   0  0  0  0  0  0  0  0  0  0  0  0
    2.9858    2.9778    0.0000 H   0  0  0  0  0  0  0  0  0  0  0  0
    0.6089    1.5822    0.0000 H   0  0  0  0  0  0  0  0  0  0  0  0
    1.2825    1.7627    0.0000 H   0  0  0  0  0  0  0  0  0  0  0  0
    0.0377    2.8072    0.0000 H   0  0  0  0  0  0  0  0  0  0  0  0
  1  2  1  0  0  0  0
  2  3  1  0  0  0  0
  3  4  1  0  0  0  0
  4  5  1  0  0  0  0
  4  6  1  0  0  0  0
  4  7  1  0  0  0  0
  2  8  1  0  0  0  0
  8  9  1  0  0  0  0
  9 10  1  0  0  0  0
  9 11  1  0  0  0  0
  9 12  1  0  0  0  0
  1 13  1  0  0  0  0
  1 14  1  0  0  0  0
  1 15  1  0  0  0  0
  2 16  1  0  0  0  0
  3 17  1  0  0  0  0
  3 18  1  0  0  0  0
  5 19  1  0  0  0  0
  5 20  1  0  0  0  0
  5 21  1  0  0  0  0
  6 22  1  0  0  0  0
  6 23  1  0  0  0  0
  6 24  1  0  0  0  0
  7 25  1  0  0  0  0
  7 26  1  0  0  0  0
  7 27  1  0  0  0  0
  8 28  1  0  0  0  0
  8 29  1  0  0  0  0
 10 30  1  0  0  0  0
 10 31  1  0  0  0  0
 10 32  1  0  0  0  0
 11 33  1  0  0  0  0
 11 34  1  0  0  0  0
 11 35  1  0  0  0  0
 12 36  1  0  0  0  0
 12 37  1  0  0  0  0
 12 38  1  0  0  0  0
M  END
>  <id_input>
2066, 2068, 2069, 2071, 2076

>  <InChIKey>
VKPSKYDESGTTFR-UHFFFAOYSA-N

>  <substance_name>
2,2,4,6,6-pentamethylheptane

>  <casrn>
13475-82-6

>  <Molecular weight>
170.33483886718753

>  <guideline>
OECD Guideline 404 (Acute Dermal Irritation / Corrosion)

>  <species>
rabbit

>  <type_of_coverage>
semiocclusive

>  <max_duration(hrs)>
4.0

>  <vehicle>
unchanged (no vehicle)

>  <edema/ erythema score>
1.495

>  <max_score>
2.0

>  <reversibility>
0.0

>  <Outcome>
1

>  <StandardizerResult>
Remove Explicit Hydrogens (ID: RemoveExplicitH)
Clear Stereo (ID: ClearStereo)
Wedge Clean (ID: WedgeClean)
Mesomerize (ID: Mesomerize)
Tautomerize (ID: Tautomerize)
Add Explicit Hydrogens (ID: AddExplicitH)
Neutralize (ID: Neutralize)
Clean 2D (ID: Clean2D)


$$$$

  Mrv1812 02121911042D          

138145  0  0  0  0            999 V2000
   -3.0991    5.8820    0.0000 C   0  0  0  0  0  0  0  0  0  0  0  0
   -2.9805    5.0655    0.0000 O   0  0  0  0  0  0  0  0  0  0  0  0
   -2.2142    4.7599    0.0000 C   0  0  0  0  0  0  0  0  0  0  0  0
   -1.5664    5.2708    0.0000 C   0  0  0  0  0  0  0  0  0  0  0  0
   -0.8001    4.9653    0.0000 C   0  0  0  0  0  0  0  0  0  0  0  0
   -0.6815    4.1488    0.0000 O   0  0  0  0  0  0  0  0  0  0  0  0
   -1.3293    3.6379    0.0000 C   0  0  0  0  0  0  0  0  0  0  0  0
   -1.2108    2.8215    0.0000 C   0  0  0  0  0  0  0  0  0  0  0  0
   -2.0957    3.9435    0.0000 C   0  0  0  0  0  0  0  0  0  0  0  0
   -2.7434    3.4326    0.0000 O   0  0  0  0  0  0  0  0  0  0  0  0
   -0.1523    5.4761    0.0000 O   0  0  0  0  0  0  0  0  0  0  0  0
    0.6140    5.1706    0.0000 C   0  0  0  0  0  0  0  0  0  0  0  0
    0.7326    4.3541    0.0000 C   0  0  0  0  0  0  0  0  0  0  0  0
    0.0848    3.8432    0.0000 C   0  0  0  0  0  0  0  0  0  0  0  0
    1.4989    4.0486    0.0000 O   0  0  0  0  0  0  0  0  0  0  0  0
    2.1467    4.5594    0.0000 C   0  0  0  0  0  0  0  0  0  0  0  0
    2.0282    5.3759    0.0000 C   0  0  0  0  0  0  0  0  0  0  0  0
    1.2618    5.6814    0.0000 C   0  0  0  0  0  0  0  0  0  0  0  0
    1.1433    6.4979    0.0000 O   0  0  0  0  0  0  0  0  0  0  0  0
    0.3770    6.8034    0.0000 C   0  0  0  0  0  0  0  0  0  0  0  0
    2.9130    4.2539    0.0000 O   0  0  0  0  0  0  0  0  0  0  0  0
    3.0316    3.4374    0.0000 C   0  0  0  0  0  0  0  0  0  0  0  0
    2.3838    2.9265    0.0000 C   0  0  0  0  0  0  0  0  0  0  0  0
    1.6174    3.2321    0.0000 C   0  0  0  0  0  0  0  0  0  0  0  0
    2.5023    2.1101    0.0000 C   0  0  0  0  0  0  0  0  0  0  0  0
    1.8545    1.5992    0.0000 C   0  0  0  0  0  0  0  0  0  0  0  0
    1.9730    0.7828    0.0000 C   0  0  0  0  0  0  0  0  0  0  0  0
    1.3253    0.2719    0.0000 C   0  0  0  0  0  0  0  0  0  0  0  0
    0.4535    0.3873    0.0000 C   0  0  0  0  0  0  0  0  0  0  0  0
    0.1479   -0.3790    0.0000 O   0  0  0  0  0  0  0  0  0  0  0  0
    0.7823   -0.9065    0.0000 C   0  0  0  0  0  0  0  0  0  0  0  0
    0.8148   -1.7308    0.0000 C   0  0  0  0  0  0  0  0  0  0  0  0
    0.1172   -2.1712    0.0000 O   0  0  0  0  0  0  0  0  0  0  0  0
    1.5450   -2.1148    0.0000 C   0  0  0  0  0  0  0  0  0  0  0  0
    2.2427   -1.6744    0.0000 C   0  0  0  0  0  0  0  0  0  0  0  0
    2.2101   -0.8501    0.0000 C   0  0  0  0  0  0  0  0  0  0  0  0
    2.8579   -0.3392    0.0000 C   0  0  0  0  0  0  0  0  0  0  0  0
    2.7394    0.4772    0.0000 O   0  0  0  0  0  0  0  0  0  0  0  0
    3.6242   -0.6448    0.0000 O   0  0  0  0  0  0  0  0  0  0  0  0
    4.2720   -0.1339    0.0000 C   0  0  0  0  0  0  0  0  0  0  0  0
    4.1535    0.6825    0.0000 C   0  0  0  0  0  0  0  0  0  0  0  0
    4.8013    1.1934    0.0000 C   0  0  0  0  0  0  0  0  0  0  0  0
    4.6827    2.0099    0.0000 C   0  0  0  0  0  0  0  0  0  0  0  0
    3.9164    2.3154    0.0000 C   0  0  0  0  0  0  0  0  0  0  0  0
    3.7979    3.1319    0.0000 C   0  0  0  0  0  0  0  0  0  0  0  0
    4.4457    3.6427    0.0000 C   0  0  0  0  0  0  0  0  0  0  0  0
    5.5676    0.8878    0.0000 O   0  0  0  0  0  0  0  0  0  0  0  0
    5.6861    0.0714    0.0000 C   0  0  0  0  0  0  0  0  0  0  0  0
    5.0383   -0.4395    0.0000 C   0  0  0  0  0  0  0  0  0  0  0  0
    5.8047   -0.7450    0.0000 O   0  0  0  0  0  0  0  0  0  0  0  0
    6.5710   -1.0506    0.0000 C   0  0  0  0  0  0  0  0  0  0  0  0
    7.2188   -0.5397    0.0000 C   0  0  0  0  0  0  0  0  0  0  0  0
    7.9851   -0.8453    0.0000 C   0  0  0  0  0  0  0  0  0  0  0  0
    7.1002    0.2767    0.0000 C   0  0  0  0  0  0  0  0  0  0  0  0
    6.3339    0.5823    0.0000 C   0  0  0  0  0  0  0  0  0  0  0  0
    6.6895   -1.8670    0.0000 C   0  0  0  0  0  0  0  0  0  0  0  0
    6.0417   -2.3779    0.0000 C   0  0  0  0  0  0  0  0  0  0  0  0
    6.1603   -3.1944    0.0000 C   0  0  0  0  0  0  0  0  0  0  0  0
    6.9266   -3.4999    0.0000 C   0  0  0  0  0  0  0  0  0  0  0  0
    7.5744   -2.9890    0.0000 C   0  0  0  0  0  0  0  0  0  0  0  0
    7.4559   -2.1726    0.0000 C   0  0  0  0  0  0  0  0  0  0  0  0
    1.4438   -0.5445    0.0000 C   0  0  0  0  0  0  0  0  0  0  0  0
    1.4938   -1.3680    0.0000 O   0  0  0  0  0  0  0  0  0  0  0  0
    1.5776   -2.9392    0.0000 C   0  0  0  0  0  0  0  0  0  0  0  0
   -2.2826    6.0005    0.0000 H   0  0  0  0  0  0  0  0  0  0  0  0
   -3.2176    6.6984    0.0000 H   0  0  0  0  0  0  0  0  0  0  0  0
   -3.9155    5.7634    0.0000 H   0  0  0  0  0  0  0  0  0  0  0  0
   -2.3327    5.5764    0.0000 H   0  0  0  0  0  0  0  0  0  0  0  0
   -1.0172    5.8864    0.0000 H   0  0  0  0  0  0  0  0  0  0  0  0
   -1.5414    6.0954    0.0000 H   0  0  0  0  0  0  0  0  0  0  0  0
   -0.0337    4.6597    0.0000 H   0  0  0  0  0  0  0  0  0  0  0  0
   -0.5630    3.3324    0.0000 H   0  0  0  0  0  0  0  0  0  0  0  0
   -2.0301    2.9183    0.0000 H   0  0  0  0  0  0  0  0  0  0  0  0
   -1.5164    2.0552    0.0000 H   0  0  0  0  0  0  0  0  0  0  0  0
   -0.5497    2.3280    0.0000 H   0  0  0  0  0  0  0  0  0  0  0  0
   -1.9771    3.1271    0.0000 H   0  0  0  0  0  0  0  0  0  0  0  0
   -3.5683    3.4149    0.0000 H   0  0  0  0  0  0  0  0  0  0  0  0
    0.4955    5.9870    0.0000 H   0  0  0  0  0  0  0  0  0  0  0  0
    0.8511    3.5377    0.0000 H   0  0  0  0  0  0  0  0  0  0  0  0
   -0.0831    3.0355    0.0000 H   0  0  0  0  0  0  0  0  0  0  0  0
    0.4754    3.1166    0.0000 H   0  0  0  0  0  0  0  0  0  0  0  0
   -0.7317    3.7247    0.0000 H   0  0  0  0  0  0  0  0  0  0  0  0
    2.2652    3.7430    0.0000 H   0  0  0  0  0  0  0  0  0  0  0  0
    2.8363    5.5417    0.0000 H   0  0  0  0  0  0  0  0  0  0  0  0
    2.3778    6.1231    0.0000 H   0  0  0  0  0  0  0  0  0  0  0  0
    1.9096    6.1923    0.0000 H   0  0  0  0  0  0  0  0  0  0  0  0
    0.8705    7.4646    0.0000 H   0  0  0  0  0  0  0  0  0  0  0  0
   -0.1339    7.4512    0.0000 H   0  0  0  0  0  0  0  0  0  0  0  0
   -0.3810    6.4776    0.0000 H   0  0  0  0  0  0  0  0  0  0  0  0
    3.1501    2.6210    0.0000 H   0  0  0  0  0  0  0  0  0  0  0  0
    1.7360    2.4157    0.0000 H   0  0  0  0  0  0  0  0  0  0  0  0
    0.8340    2.9736    0.0000 H   0  0  0  0  0  0  0  0  0  0  0  0
    1.1834    2.5305    0.0000 H   0  0  0  0  0  0  0  0  0  0  0  0
    1.1066    3.8799    0.0000 H   0  0  0  0  0  0  0  0  0  0  0  0
    3.0132    1.4623    0.0000 H   0  0  0  0  0  0  0  0  0  0  0  0
    1.0381    1.4807    0.0000 H   0  0  0  0  0  0  0  0  0  0  0  0
    2.6208    1.2937    0.0000 H   0  0  0  0  0  0  0  0  0  0  0  0
    0.4255    1.2118    0.0000 H   0  0  0  0  0  0  0  0  0  0  0  0
   -0.2521    0.8149    0.0000 H   0  0  0  0  0  0  0  0  0  0  0  0
    0.0424   -1.2715    0.0000 H   0  0  0  0  0  0  0  0  0  0  0  0
    0.8474   -2.5552    0.0000 H   0  0  0  0  0  0  0  0  0  0  0  0
   -0.5707   -2.6266    0.0000 H   0  0  0  0  0  0  0  0  0  0  0  0
    2.9728   -2.0584    0.0000 H   0  0  0  0  0  0  0  0  0  0  0  0
    2.0916   -0.0336    0.0000 H   0  0  0  0  0  0  0  0  0  0  0  0
    4.3906   -0.9503    0.0000 H   0  0  0  0  0  0  0  0  0  0  0  0
    3.6058    1.2995    0.0000 H   0  0  0  0  0  0  0  0  0  0  0  0
    3.3315    0.6117    0.0000 H   0  0  0  0  0  0  0  0  0  0  0  0
    5.4491    1.7043    0.0000 H   0  0  0  0  0  0  0  0  0  0  0  0
    5.2320    2.6255    0.0000 H   0  0  0  0  0  0  0  0  0  0  0  0
    4.7078    2.8345    0.0000 H   0  0  0  0  0  0  0  0  0  0  0  0
    3.6108    1.5491    0.0000 H   0  0  0  0  0  0  0  0  0  0  0  0
    5.2706    3.6505    0.0000 H   0  0  0  0  0  0  0  0  0  0  0  0
    4.6853    4.4322    0.0000 H   0  0  0  0  0  0  0  0  0  0  0  0
    3.7642    4.1078    0.0000 H   0  0  0  0  0  0  0  0  0  0  0  0
    5.1569   -1.2559    0.0000 H   0  0  0  0  0  0  0  0  0  0  0  0
    4.9198    0.3770    0.0000 H   0  0  0  0  0  0  0  0  0  0  0  0
    5.9232   -1.5615    0.0000 H   0  0  0  0  0  0  0  0  0  0  0  0
    7.3373   -1.3562    0.0000 H   0  0  0  0  0  0  0  0  0  0  0  0
    8.3109   -1.6032    0.0000 H   0  0  0  0  0  0  0  0  0  0  0  0
    8.8015   -0.7268    0.0000 H   0  0  0  0  0  0  0  0  0  0  0  0
    8.0819   -0.0260    0.0000 H   0  0  0  0  0  0  0  0  0  0  0  0
    7.7480    0.7876    0.0000 H   0  0  0  0  0  0  0  0  0  0  0  0
    6.6395    1.3486    0.0000 H   0  0  0  0  0  0  0  0  0  0  0  0
    6.8081   -2.6835    0.0000 H   0  0  0  0  0  0  0  0  0  0  0  0
    5.2340   -2.2101    0.0000 H   0  0  0  0  0  0  0  0  0  0  0  0
    5.3151   -2.7685    0.0000 H   0  0  0  0  0  0  0  0  0  0  0  0
    5.5790   -3.7798    0.0000 H   0  0  0  0  0  0  0  0  0  0  0  0
    6.1073   -4.0177    0.0000 H   0  0  0  0  0  0  0  0  0  0  0  0
    7.1347   -4.2982    0.0000 H   0  0  0  0  0  0  0  0  0  0  0  0
    7.6101   -3.9620    0.0000 H   0  0  0  0  0  0  0  0  0  0  0  0
    8.1221   -3.6060    0.0000 H   0  0  0  0  0  0  0  0  0  0  0  0
    8.3963   -2.9182    0.0000 H   0  0  0  0  0  0  0  0  0  0  0  0
    8.2636   -2.3405    0.0000 H   0  0  0  0  0  0  0  0  0  0  0  0
    8.1825   -1.7820    0.0000 H   0  0  0  0  0  0  0  0  0  0  0  0
    1.0941   -2.0897    0.0000 H   0  0  0  0  0  0  0  0  0  0  0  0
    1.0177   -3.5451    0.0000 H   0  0  0  0  0  0  0  0  0  0  0  0
    2.0179   -3.6368    0.0000 H   0  0  0  0  0  0  0  0  0  0  0  0
    2.3654   -2.6944    0.0000 H   0  0  0  0  0  0  0  0  0  0  0  0
  1  2  1  0  0  0  0
  2  3  1  0  0  0  0
  4  3  1  0  0  0  0
  5  4  1  0  0  0  0
  6  5  1  0  0  0  0
  7  6  1  0  0  0  0
  7  8  1  0  0  0  0
  9  7  1  0  0  0  0
  9 10  1  0  0  0  0
  5 11  1  0  0  0  0
 11 12  1  0  0  0  0
 13 12  1  0  0  0  0
 13 14  1  0  0  0  0
 15 13  1  0  0  0  0
 16 15  1  0  0  0  0
 17 16  1  0  0  0  0
 18 17  1  0  0  0  0
 18 19  1  0  0  0  0
 19 20  1  0  0  0  0
 16 21  1  0  0  0  0
 21 22  1  0  0  0  0
 23 22  1  0  0  0  0
 23 24  1  0  0  0  0
 25 23  1  0  0  0  0
 26 25  2  0  0  0  0
 26 27  1  0  0  0  0
 28 27  2  0  0  0  0
 28 29  1  0  0  0  0
 30 29  1  0  0  0  0
 31 30  1  0  0  0  0
 31 32  1  0  0  0  0
 32 33  1  0  0  0  0
 32 34  1  0  0  0  0
 34 35  2  0  0  0  0
 35 36  1  0  0  0  0
 37 36  1  0  0  0  0
 37 38  2  0  0  0  0
 39 37  1  0  0  0  0
 40 39  1  0  0  0  0
 40 41  1  0  0  0  0
 41 42  1  0  0  0  0
 43 42  1  0  0  0  0
 44 43  1  0  0  0  0
 45 44  2  0  0  0  0
 45 46  1  0  0  0  0
 42 47  1  0  0  0  0
 47 48  1  0  0  0  0
 48 49  1  0  0  0  0
 50 48  1  0  0  0  0
 51 50  1  0  0  0  0
 52 51  1  0  0  0  0
 52 53  1  0  0  0  0
 54 52  1  0  0  0  0
 55 54  2  0  0  0  0
 51 56  1  0  0  0  0
 57 56  1  0  0  0  0
 58 57  1  0  0  0  0
 59 58  1  0  0  0  0
 60 59  1  0  0  0  0
 61 60  1  0  0  0  0
 36 62  1  0  0  0  0
 62 63  1  0  0  0  0
 34 64  1  0  0  0  0
  3  9  1  0  0  0  0
 12 18  1  0  0  0  0
 22 45  1  0  0  0  0
 28 62  1  0  0  0  0
 62 31  1  0  0  0  0
 49 40  1  0  0  0  0
 48 55  1  0  0  0  0
 56 61  1  0  0  0  0
  1 65  1  0  0  0  0
  1 66  1  0  0  0  0
  1 67  1  0  0  0  0
  3 68  1  0  0  0  0
  4 69  1  0  0  0  0
  4 70  1  0  0  0  0
  5 71  1  0  0  0  0
  7 72  1  0  0  0  0
  8 73  1  0  0  0  0
  8 74  1  0  0  0  0
  8 75  1  0  0  0  0
  9 76  1  0  0  0  0
 10 77  1  0  0  0  0
 12 78  1  0  0  0  0
 13 79  1  0  0  0  0
 14 80  1  0  0  0  0
 14 81  1  0  0  0  0
 14 82  1  0  0  0  0
 16 83  1  0  0  0  0
 17 84  1  0  0  0  0
 17 85  1  0  0  0  0
 18 86  1  0  0  0  0
 20 87  1  0  0  0  0
 20 88  1  0  0  0  0
 20 89  1  0  0  0  0
 22 90  1  0  0  0  0
 23 91  1  0  0  0  0
 24 92  1  0  0  0  0
 24 93  1  0  0  0  0
 24 94  1  0  0  0  0
 25 95  1  0  0  0  0
 26 96  1  4  0  0  0
 27 97  1  4  0  0  0
 29 98  1  0  0  0  0
 29 99  1  0  0  0  0
 31100  1  0  0  0  0
 32101  1  0  0  0  0
 33102  1  0  0  0  0
 35103  1  0  0  0  0
 36104  1  0  0  0  0
 40105  1  0  0  0  0
 41106  1  0  0  0  0
 41107  1  0  0  0  0
 42108  1  0  0  0  0
 43109  1  0  0  0  0
 43110  1  0  0  0  0
 44111  1  4  0  0  0
 46112  1  0  0  0  0
 46113  1  0  0  0  0
 46114  1  0  0  0  0
 49115  1  0  0  0  0
 49116  1  0  0  0  0
 51117  1  0  0  0  0
 52118  1  0  0  0  0
 53119  1  0  0  0  0
 53120  1  0  0  0  0
 53121  1  0  0  0  0
 54122  1  0  0  0  0
 55123  1  0  0  0  0
 56124  1  0  0  0  0
 57125  1  0  0  0  0
 57126  1  0  0  0  0
 58127  1  0  0  0  0
 58128  1  0  0  0  0
 59129  1  0  0  0  0
 59130  1  0  0  0  0
 60131  1  0  0  0  0
 60132  1  0  0  0  0
 61133  1  0  0  0  0
 61134  1  0  0  0  0
 63135  1  0  0  0  0
 64136  1  0  0  0  0
 64137  1  0  0  0  0
 64138  1  0  0  0  0
M  END
>  <id_input>
763

>  <InChIKey>
QLFZZSKTJWDQOS-LHBWCTOLSA-N

>  <substance_name>
-

>  <casrn>
117704-25-3

>  <Molecular weight>
899.1141967773438

>  <guideline>
OECD Guideline 404 (Acute Dermal Irritation / Corrosion)

>  <species>
rabbit

>  <type_of_coverage>
occlusive

>  <max_duration(hrs)>
24.0

>  <vehicle>
unchanged (no vehicle)

>  <edema/ erythema score>
0.33

>  <max_score>
1.0

>  <reversibility>
0.0

>  <Outcome>
0

>  <StandardizerResult>
Remove Explicit Hydrogens (ID: RemoveExplicitH)
Clear Stereo (ID: ClearStereo)
Wedge Clean (ID: WedgeClean)
Mesomerize (ID: Mesomerize)
Tautomerize (ID: Tautomerize)
Add Explicit Hydrogens (ID: AddExplicitH)
Neutralize (ID: Neutralize)
Clean 2D (ID: Clean2D)


$$$$

  Mrv1812 02121911042D          

113116  0  0  0  0            999 V2000
   -3.1665    6.8095    0.0000 C   0  0  0  0  0  0  0  0  0  0  0  0
   -2.4520    6.3970    0.0000 C   0  0  0  0  0  0  0  0  0  0  0  0
   -2.4520    5.5720    0.0000 O   0  0  0  0  0  0  0  0  0  0  0  0
   -1.7375    5.1595    0.0000 C   0  0  0  0  0  0  0  0  0  0  0  0
   -1.0231    5.5720    0.0000 O   0  0  0  0  0  0  0  0  0  0  0  0
   -1.7375    4.3345    0.0000 C   0  0  0  0  0  0  0  0  0  0  0  0
   -1.0231    3.9220    0.0000 N   0  0  0  0  0  0  0  0  0  0  0  0
   -0.3086    4.3345    0.0000 C   0  0  0  0  0  0  0  0  0  0  0  0
   -0.3086    5.1595    0.0000 C   0  0  0  0  0  0  0  0  0  0  0  0
   -0.6442    5.9132    0.0000 O   0  0  0  0  0  0  0  0  0  0  0  0
    0.4059    5.5720    0.0000 O   0  0  0  0  0  0  0  0  0  0  0  0
    0.4059    6.3970    0.0000 C   0  0  0  0  0  0  0  0  0  0  0  0
    1.1203    6.8095    0.0000 C   0  0  0  0  0  0  0  0  0  0  0  0
   -1.0231    3.0970    0.0000 C   0  0  0  0  0  0  0  0  0  0  0  0
   -1.7375    2.6845    0.0000 O   0  0  0  0  0  0  0  0  0  0  0  0
   -0.3086    2.6845    0.0000 O   0  0  0  0  0  0  0  0  0  0  0  0
   -0.3086    1.8595    0.0000 C   0  0  0  0  0  0  0  0  0  0  0  0
   -0.9760    1.3746    0.0000 C   0  0  0  0  0  0  0  0  0  0  0  0
   -0.7211    0.5900    0.0000 C   0  0  0  0  0  0  0  0  0  0  0  0
    0.1039    0.5900    0.0000 C   0  0  0  0  0  0  0  0  0  0  0  0
    0.3588    1.3746    0.0000 N   0  0  0  0  0  0  0  0  0  0  0  0
    1.1838    1.3746    0.0000 N   0  0  0  0  0  0  0  0  0  0  0  0
    1.4388    0.5900    0.0000 C   0  0  0  0  0  0  0  0  0  0  0  0
    0.7713    0.1050    0.0000 N   0  0  0  0  0  0  0  0  0  0  0  0
    2.2234    0.3350    0.0000 C   0  0  0  0  0  0  0  0  0  0  0  0
    2.3949   -0.4719    0.0000 C   0  0  0  0  0  0  0  0  0  0  0  0
    3.1795   -0.7269    0.0000 C   0  0  0  0  0  0  0  0  0  0  0  0
    3.7926   -0.1749    0.0000 C   0  0  0  0  0  0  0  0  0  0  0  0
    3.6211    0.6321    0.0000 C   0  0  0  0  0  0  0  0  0  0  0  0
    2.8365    0.8871    0.0000 C   0  0  0  0  0  0  0  0  0  0  0  0
    4.5773   -0.4298    0.0000 C   0  0  0  0  0  0  0  0  0  0  0  0
    5.3619   -0.6847    0.0000 C   0  0  0  0  0  0  0  0  0  0  0  0
    4.3223   -1.2144    0.0000 C   0  0  0  0  0  0  0  0  0  0  0  0
    4.8322    0.3548    0.0000 C   0  0  0  0  0  0  0  0  0  0  0  0
   -1.2060   -0.0775    0.0000 C   0  0  0  0  0  0  0  0  0  0  0  0
   -0.8705   -0.8312    0.0000 O   0  0  0  0  0  0  0  0  0  0  0  0
   -2.0265    0.0088    0.0000 O   0  0  0  0  0  0  0  0  0  0  0  0
   -2.5114   -0.6587    0.0000 C   0  0  0  0  0  0  0  0  0  0  0  0
   -3.3319   -0.5724    0.0000 C   0  0  0  0  0  0  0  0  0  0  0  0
   -3.8168   -1.2399    0.0000 C   0  0  0  0  0  0  0  0  0  0  0  0
   -3.4813   -1.9936    0.0000 C   0  0  0  0  0  0  0  0  0  0  0  0
   -2.6608   -2.0798    0.0000 C   0  0  0  0  0  0  0  0  0  0  0  0
   -2.1759   -1.4124    0.0000 C   0  0  0  0  0  0  0  0  0  0  0  0
   -1.3554   -1.4986    0.0000 C   0  0  0  0  0  0  0  0  0  0  0  0
   -0.5349   -1.5848    0.0000 C   0  0  0  0  0  0  0  0  0  0  0  0
   -1.2692   -0.6781    0.0000 C   0  0  0  0  0  0  0  0  0  0  0  0
   -1.4416   -2.3191    0.0000 C   0  0  0  0  0  0  0  0  0  0  0  0
   -3.9662   -2.6610    0.0000 C   0  0  0  0  0  0  0  0  0  0  0  0
   -3.6675    0.1812    0.0000 C   0  0  0  0  0  0  0  0  0  0  0  0
   -4.0030    0.9349    0.0000 C   0  0  0  0  0  0  0  0  0  0  0  0
   -4.4211   -0.1543    0.0000 C   0  0  0  0  0  0  0  0  0  0  0  0
   -2.9138    0.5168    0.0000 C   0  0  0  0  0  0  0  0  0  0  0  0
   -1.7607    1.6295    0.0000 C   0  0  0  0  0  0  0  0  0  0  0  0
   -2.7540    7.5240    0.0000 H   0  0  0  0  0  0  0  0  0  0  0  0
   -3.8810    7.2220    0.0000 H   0  0  0  0  0  0  0  0  0  0  0  0
   -3.5790    6.0950    0.0000 H   0  0  0  0  0  0  0  0  0  0  0  0
   -1.6284    6.4450    0.0000 H   0  0  0  0  0  0  0  0  0  0  0  0
   -1.9987    7.0863    0.0000 H   0  0  0  0  0  0  0  0  0  0  0  0
   -2.5612    4.2865    0.0000 H   0  0  0  0  0  0  0  0  0  0  0  0
   -2.1909    3.6452    0.0000 H   0  0  0  0  0  0  0  0  0  0  0  0
    0.1447    3.6452    0.0000 H   0  0  0  0  0  0  0  0  0  0  0  0
    0.5150    4.2865    0.0000 H   0  0  0  0  0  0  0  0  0  0  0  0
   -0.0475    7.0863    0.0000 H   0  0  0  0  0  0  0  0  0  0  0  0
   -0.4177    6.4450    0.0000 H   0  0  0  0  0  0  0  0  0  0  0  0
    1.5328    6.0950    0.0000 H   0  0  0  0  0  0  0  0  0  0  0  0
    1.8348    7.2220    0.0000 H   0  0  0  0  0  0  0  0  0  0  0  0
    0.7078    7.5240    0.0000 H   0  0  0  0  0  0  0  0  0  0  0  0
    1.6688    2.0420    0.0000 H   0  0  0  0  0  0  0  0  0  0  0  0
    1.7818   -1.0240    0.0000 H   0  0  0  0  0  0  0  0  0  0  0  0
    3.3511   -1.5339    0.0000 H   0  0  0  0  0  0  0  0  0  0  0  0
    4.2342    1.1842    0.0000 H   0  0  0  0  0  0  0  0  0  0  0  0
    2.6650    1.6940    0.0000 H   0  0  0  0  0  0  0  0  0  0  0  0
    5.1069   -1.4694    0.0000 H   0  0  0  0  0  0  0  0  0  0  0  0
    6.1465   -0.9397    0.0000 H   0  0  0  0  0  0  0  0  0  0  0  0
    5.6168    0.0999    0.0000 H   0  0  0  0  0  0  0  0  0  0  0  0
    3.6950   -0.6786    0.0000 H   0  0  0  0  0  0  0  0  0  0  0  0
    3.5872   -1.5890    0.0000 H   0  0  0  0  0  0  0  0  0  0  0  0
    4.3870   -2.0369    0.0000 H   0  0  0  0  0  0  0  0  0  0  0  0
    5.3680    0.9822    0.0000 H   0  0  0  0  0  0  0  0  0  0  0  0
    4.4577    1.0899    0.0000 H   0  0  0  0  0  0  0  0  0  0  0  0
    4.0097    0.2901    0.0000 H   0  0  0  0  0  0  0  0  0  0  0  0
   -2.8470    0.0950    0.0000 H   0  0  0  0  0  0  0  0  0  0  0  0
   -4.1524   -0.4862    0.0000 H   0  0  0  0  0  0  0  0  0  0  0  0
   -4.6398   -1.2974    0.0000 H   0  0  0  0  0  0  0  0  0  0  0  0
   -4.4103   -1.8130    0.0000 H   0  0  0  0  0  0  0  0  0  0  0  0
   -2.9964   -1.3261    0.0000 H   0  0  0  0  0  0  0  0  0  0  0  0
   -2.6992   -2.9039    0.0000 H   0  0  0  0  0  0  0  0  0  0  0  0
   -2.0227   -2.6027    0.0000 H   0  0  0  0  0  0  0  0  0  0  0  0
   -1.8403   -2.1660    0.0000 H   0  0  0  0  0  0  0  0  0  0  0  0
   -0.8306   -2.3550    0.0000 H   0  0  0  0  0  0  0  0  0  0  0  0
    0.1325   -2.0697    0.0000 H   0  0  0  0  0  0  0  0  0  0  0  0
    0.1062   -1.0656    0.0000 H   0  0  0  0  0  0  0  0  0  0  0  0
   -1.7883   -0.0370    0.0000 H   0  0  0  0  0  0  0  0  0  0  0  0
   -2.0896   -0.5919    0.0000 H   0  0  0  0  0  0  0  0  0  0  0  0
   -1.9103   -1.1973    0.0000 H   0  0  0  0  0  0  0  0  0  0  0  0
   -1.8075   -3.0585    0.0000 H   0  0  0  0  0  0  0  0  0  0  0  0
   -1.2796   -3.1280    0.0000 H   0  0  0  0  0  0  0  0  0  0  0  0
   -0.8192   -2.8605    0.0000 H   0  0  0  0  0  0  0  0  0  0  0  0
   -4.7740   -2.8287    0.0000 H   0  0  0  0  0  0  0  0  0  0  0  0
   -4.0263   -3.4838    0.0000 H   0  0  0  0  0  0  0  0  0  0  0  0
   -3.1914   -2.9444    0.0000 H   0  0  0  0  0  0  0  0  0  0  0  0
   -3.2494    1.2705    0.0000 H   0  0  0  0  0  0  0  0  0  0  0  0
   -4.3386    1.6886    0.0000 H   0  0  0  0  0  0  0  0  0  0  0  0
   -4.7567    0.5993    0.0000 H   0  0  0  0  0  0  0  0  0  0  0  0
   -5.2090    0.0903    0.0000 H   0  0  0  0  0  0  0  0  0  0  0  0
   -5.1246   -0.5854    0.0000 H   0  0  0  0  0  0  0  0  0  0  0  0
   -4.5609   -0.9674    0.0000 H   0  0  0  0  0  0  0  0  0  0  0  0
   -2.2161    0.0766    0.0000 H   0  0  0  0  0  0  0  0  0  0  0  0
   -2.1228    0.7511    0.0000 H   0  0  0  0  0  0  0  0  0  0  0  0
   -2.5684    1.2660    0.0000 H   0  0  0  0  0  0  0  0  0  0  0  0
   -1.1067    2.1324    0.0000 H   0  0  0  0  0  0  0  0  0  0  0  0
   -1.8055    2.4533    0.0000 H   0  0  0  0  0  0  0  0  0  0  0  0
   -2.4654    2.0585    0.0000 H   0  0  0  0  0  0  0  0  0  0  0  0
  1  2  1  0  0  0  0
  2  3  1  0  0  0  0
  3  4  1  0  0  0  0
  4  5  2  0  0  0  0
  4  6  1  0  0  0  0
  6  7  1  0  0  0  0
  7  8  1  0  0  0  0
  8  9  1  0  0  0  0
  9 10  2  0  0  0  0
  9 11  1  0  0  0  0
 11 12  1  0  0  0  0
 12 13  1  0  0  0  0
  7 14  1  0  0  0  0
 14 15  2  0  0  0  0
 14 16  1  0  0  0  0
 16 17  1  0  0  0  0
 18 17  4  0  0  0  0
 19 18  4  0  0  0  0
 20 19  4  0  0  0  0
 20 21  4  0  0  0  0
 21 22  4  0  0  0  0
 22 23  4  0  0  0  0
 23 24  4  0  0  0  0
 23 25  1  0  0  0  0
 26 25  4  0  0  0  0
 27 26  4  0  0  0  0
 28 27  4  0  0  0  0
 29 28  4  0  0  0  0
 30 29  4  0  0  0  0
 28 31  1  0  0  0  0
 31 32  1  0  0  0  0
 31 33  1  0  0  0  0
 31 34  1  0  0  0  0
 19 35  1  0  0  0  0
 35 36  2  0  0  0  0
 35 37  1  0  0  0  0
 37 38  1  0  0  0  0
 39 38  1  0  0  0  0
 40 39  1  0  0  0  0
 41 40  1  0  0  0  0
 42 41  1  0  0  0  0
 43 42  1  0  0  0  0
 43 44  1  0  0  0  0
 44 45  1  0  0  0  0
 44 46  1  0  0  0  0
 44 47  1  0  0  0  0
 41 48  1  0  0  0  0
 39 49  1  0  0  0  0
 49 50  1  0  0  0  0
 49 51  1  0  0  0  0
 49 52  1  0  0  0  0
 18 53  1  0  0  0  0
 17 21  4  0  0  0  0
 24 20  4  0  0  0  0
 25 30  4  0  0  0  0
 38 43  1  0  0  0  0
  1 54  1  0  0  0  0
  1 55  1  0  0  0  0
  1 56  1  0  0  0  0
  2 57  1  0  0  0  0
  2 58  1  0  0  0  0
  6 59  1  0  0  0  0
  6 60  1  0  0  0  0
  8 61  1  0  0  0  0
  8 62  1  0  0  0  0
 12 63  1  0  0  0  0
 12 64  1  0  0  0  0
 13 65  1  0  0  0  0
 13 66  1  0  0  0  0
 13 67  1  0  0  0  0
 22 68  1  0  0  0  0
 26 69  1  0  0  0  0
 27 70  1  0  0  0  0
 29 71  1  0  0  0  0
 30 72  1  0  0  0  0
 32 73  1  0  0  0  0
 32 74  1  0  0  0  0
 32 75  1  0  0  0  0
 33 76  1  0  0  0  0
 33 77  1  0  0  0  0
 33 78  1  0  0  0  0
 34 79  1  0  0  0  0
 34 80  1  0  0  0  0
 34 81  1  0  0  0  0
 38 82  1  0  0  0  0
 39 83  1  0  0  0  0
 40 84  1  0  0  0  0
 40 85  1  0  0  0  0
 41 86  1  0  0  0  0
 42 87  1  0  0  0  0
 42 88  1  0  0  0  0
 43 89  1  0  0  0  0
 45 90  1  0  0  0  0
 45 91  1  0  0  0  0
 45 92  1  0  0  0  0
 46 93  1  0  0  0  0
 46 94  1  0  0  0  0
 46 95  1  0  0  0  0
 47 96  1  0  0  0  0
 47 97  1  0  0  0  0
 47 98  1  0  0  0  0
 48 99  1  0  0  0  0
 48100  1  0  0  0  0
 48101  1  0  0  0  0
 50102  1  0  0  0  0
 50103  1  0  0  0  0
 50104  1  0  0  0  0
 51105  1  0  0  0  0
 51106  1  0  0  0  0
 51107  1  0  0  0  0
 52108  1  0  0  0  0
 52109  1  0  0  0  0
 52110  1  0  0  0  0
 53111  1  0  0  0  0
 53112  1  0  0  0  0
 53113  1  0  0  0  0
M  END
>  <id_input>
964, 2149

>  <InChIKey>
AOZWFOQILKPXEJ-UHFFFAOYSA-N

>  <substance_name>
-

>  <casrn>
444065-11-6

>  <Molecular weight>
736.9371337890625

>  <guideline>
OECD Guideline 404 (Acute Dermal Irritation / Corrosion)

>  <species>
rabbit

>  <type_of_coverage>
semiocclusive

>  <max_duration(hrs)>
4.0

>  <vehicle>
other: The powdery test substance was moistened with water (Milli-U) immediately before application

>  <edema/ erythema score>
0.0

>  <max_score>
4.0

>  <reversibility>
0.0

>  <Outcome>
0

>  <StandardizerResult>
Remove Explicit Hydrogens (ID: RemoveExplicitH)
Dearomatize (ID: Dearomatize)
Clear Stereo (ID: ClearStereo)
Wedge Clean (ID: WedgeClean)
Mesomerize (ID: Mesomerize)
Tautomerize (ID: Tautomerize)
Aromatize (ID: Aromatize)
Add Explicit Hydrogens (ID: AddExplicitH)
Neutralize (ID: Neutralize)
Clean 2D (ID: Clean2D)


$$$$

  Mrv1812 02121911042D          

 64 68  0  0  0  0            999 V2000
   -0.9720   -7.8042    0.0000 C   0  0  0  0  0  0  0  0  0  0  0  0
   -0.2575   -7.3917    0.0000 N   0  0  0  0  0  0  0  0  0  0  0  0
   -0.2575   -6.5667    0.0000 S   0  0  0  0  0  0  0  0  0  0  0  0
    0.5675   -6.5667    0.0000 O   0  0  0  0  0  0  0  0  0  0  0  0
   -1.0825   -6.5667    0.0000 O   0  0  0  0  0  0  0  0  0  0  0  0
   -0.2575   -5.7417    0.0000 C   0  0  0  0  0  0  0  0  0  0  0  0
    0.4570   -5.3292    0.0000 C   0  0  0  0  0  0  0  0  0  0  0  0
    0.4570   -4.5042    0.0000 C   0  0  0  0  0  0  0  0  0  0  0  0
    1.1714   -4.0917    0.0000 O   0  0  0  0  0  0  0  0  0  0  0  0
    1.1714   -3.2667    0.0000 C   0  0  0  0  0  0  0  0  0  0  0  0
   -0.2575   -4.0917    0.0000 C   0  0  0  0  0  0  0  0  0  0  0  0
   -0.2575   -3.2667    0.0000 N   0  0  0  0  0  0  0  0  0  0  0  0
   -0.9720   -2.8542    0.0000 N   0  0  0  0  0  0  0  0  0  0  0  0
   -0.9720   -2.0292    0.0000 C   0  0  0  0  0  0  0  0  0  0  0  0
   -1.6864   -1.6167    0.0000 C   0  0  0  0  0  0  0  0  0  0  0  0
   -2.4009   -2.0292    0.0000 O   0  0  0  0  0  0  0  0  0  0  0  0
   -1.6864   -0.7917    0.0000 C   0  0  0  0  0  0  0  0  0  0  0  0
   -0.9720   -0.3792    0.0000 C   0  0  0  0  0  0  0  0  0  0  0  0
   -0.2575   -0.7917    0.0000 C   0  0  0  0  0  0  0  0  0  0  0  0
    0.4570   -0.3792    0.0000 C   0  0  0  0  0  0  0  0  0  0  0  0
    1.1714   -0.7917    0.0000 C   0  0  0  0  0  0  0  0  0  0  0  0
    1.1714   -1.6167    0.0000 C   0  0  0  0  0  0  0  0  0  0  0  0
    0.4570   -2.0292    0.0000 C   0  0  0  0  0  0  0  0  0  0  0  0
   -0.2575   -1.6167    0.0000 C   0  0  0  0  0  0  0  0  0  0  0  0
   -2.4009   -0.3792    0.0000 C   0  0  0  0  0  0  0  0  0  0  0  0
   -2.4009    0.4458    0.0000 O   0  0  0  0  0  0  0  0  0  0  0  0
   -3.1154   -0.7917    0.0000 N   0  0  0  0  0  0  0  0  0  0  0  0
   -3.8298   -0.3792    0.0000 C   0  0  0  0  0  0  0  0  0  0  0  0
   -3.8298    0.4458    0.0000 C   0  0  0  0  0  0  0  0  0  0  0  0
   -4.5443    0.8583    0.0000 C   0  0  0  0  0  0  0  0  0  0  0  0
   -5.2588    0.4458    0.0000 C   0  0  0  0  0  0  0  0  0  0  0  0
   -6.0434    0.7007    0.0000 N   0  0  0  0  0  0  0  0  0  0  0  0
   -6.5283    0.0333    0.0000 C   0  0  0  0  0  0  0  0  0  0  0  0
   -7.3533    0.0333    0.0000 O   0  0  0  0  0  0  0  0  0  0  0  0
   -6.0434   -0.6341    0.0000 N   0  0  0  0  0  0  0  0  0  0  0  0
   -5.2588   -0.3792    0.0000 C   0  0  0  0  0  0  0  0  0  0  0  0
   -4.5443   -0.7917    0.0000 C   0  0  0  0  0  0  0  0  0  0  0  0
   -0.9720   -4.5042    0.0000 C   0  0  0  0  0  0  0  0  0  0  0  0
   -0.9720   -5.3292    0.0000 C   0  0  0  0  0  0  0  0  0  0  0  0
   -1.6864   -5.7417    0.0000 C   0  0  0  0  0  0  0  0  0  0  0  0
   -1.3845   -7.0897    0.0000 H   0  0  0  0  0  0  0  0  0  0  0  0
   -1.6864   -8.2167    0.0000 H   0  0  0  0  0  0  0  0  0  0  0  0
   -0.5595   -8.5187    0.0000 H   0  0  0  0  0  0  0  0  0  0  0  0
    0.4570   -7.8042    0.0000 H   0  0  0  0  0  0  0  0  0  0  0  0
    1.1714   -5.7417    0.0000 H   0  0  0  0  0  0  0  0  0  0  0  0
    1.9964   -3.2667    0.0000 H   0  0  0  0  0  0  0  0  0  0  0  0
    1.1714   -2.4417    0.0000 H   0  0  0  0  0  0  0  0  0  0  0  0
    0.3464   -3.2667    0.0000 H   0  0  0  0  0  0  0  0  0  0  0  0
   -3.1154   -1.6167    0.0000 H   0  0  0  0  0  0  0  0  0  0  0  0
   -0.9720    0.4458    0.0000 H   0  0  0  0  0  0  0  0  0  0  0  0
    0.4570    0.4458    0.0000 H   0  0  0  0  0  0  0  0  0  0  0  0
    1.8859   -0.3792    0.0000 H   0  0  0  0  0  0  0  0  0  0  0  0
    1.9964   -1.6167    0.0000 H   0  0  0  0  0  0  0  0  0  0  0  0
    0.0445   -2.7437    0.0000 H   0  0  0  0  0  0  0  0  0  0  0  0
   -2.4009   -1.2042    0.0000 H   0  0  0  0  0  0  0  0  0  0  0  0
   -3.1154    0.8583    0.0000 H   0  0  0  0  0  0  0  0  0  0  0  0
   -4.5443    1.6833    0.0000 H   0  0  0  0  0  0  0  0  0  0  0  0
   -6.2984    1.4854    0.0000 H   0  0  0  0  0  0  0  0  0  0  0  0
   -6.2984   -1.4188    0.0000 H   0  0  0  0  0  0  0  0  0  0  0  0
   -4.5443   -1.6167    0.0000 H   0  0  0  0  0  0  0  0  0  0  0  0
   -1.6864   -4.0917    0.0000 H   0  0  0  0  0  0  0  0  0  0  0  0
   -2.0989   -5.0272    0.0000 H   0  0  0  0  0  0  0  0  0  0  0  0
   -2.4009   -6.1542    0.0000 H   0  0  0  0  0  0  0  0  0  0  0  0
   -1.2739   -6.4562    0.0000 H   0  0  0  0  0  0  0  0  0  0  0  0
  1  2  1  0  0  0  0
  2  3  1  0  0  0  0
  3  4  2  0  0  0  0
  3  5  2  0  0  0  0
  3  6  1  0  0  0  0
  7  6  4  0  0  0  0
  8  7  4  0  0  0  0
  8  9  1  0  0  0  0
  9 10  1  0  0  0  0
 11  8  4  0  0  0  0
 12 11  1  4  0  0  0
 12 13  2  0  0  0  0
 13 14  1  0  0  0  0
 15 14  4  0  0  0  0
 15 16  1  0  0  0  0
 17 15  4  0  0  0  0
 18 17  4  0  0  0  0
 19 18  4  0  0  0  0
 19 20  4  0  0  0  0
 20 21  4  0  0  0  0
 21 22  4  0  0  0  0
 22 23  4  0  0  0  0
 23 24  4  0  0  0  0
 17 25  1  0  0  0  0
 25 26  2  0  0  0  0
 25 27  1  0  0  0  0
 27 28  1  0  0  0  0
 29 28  4  0  0  0  0
 30 29  4  0  0  0  0
 31 30  4  0  0  0  0
 31 32  1  0  0  0  0
 32 33  1  0  0  0  0
 33 34  2  0  0  0  0
 33 35  1  0  0  0  0
 35 36  1  0  0  0  0
 37 36  4  0  0  0  0
 38 11  4  0  0  0  0
 39 38  4  0  0  0  0
 39 40  1  0  0  0  0
  6 39  4  0  0  0  0
 14 24  4  0  0  0  0
 24 19  4  0  0  0  0
 28 37  4  0  0  0  0
 36 31  4  0  0  0  0
  1 41  1  0  0  0  0
  1 42  1  0  0  0  0
  1 43  1  0  0  0  0
  2 44  1  0  0  0  0
  7 45  1  0  0  0  0
 10 46  1  0  0  0  0
 10 47  1  0  0  0  0
 10 48  1  0  0  0  0
 16 49  1  0  0  0  0
 18 50  1  0  0  0  0
 20 51  1  0  0  0  0
 21 52  1  0  0  0  0
 22 53  1  0  0  0  0
 23 54  1  0  0  0  0
 27 55  1  0  0  0  0
 29 56  1  0  0  0  0
 30 57  1  0  0  0  0
 32 58  1  0  0  0  0
 35 59  1  0  0  0  0
 37 60  1  0  0  0  0
 38 61  1  0  0  0  0
 40 62  1  0  0  0  0
 40 63  1  0  0  0  0
 40 64  1  0  0  0  0
M  END
>  <id_input>
2745, 2746

>  <InChIKey>
YKGGTUUWVUHZIL-UHFFFAOYSA-N

>  <substance_name>
3-hydroxy-4-[(E)-2-[2-methoxy-5-methyl-4-(methylsulfamoyl)phenyl]diazen-1-yl]-N-(2-oxo-2,3-dihydro-1H-1,3-benzodiazol-5-yl)naphthalene-2-carboxamide

>  <casrn>
51920-12-8

>  <Molecular weight>
560.5810546875

>  <guideline>
OECD Guideline 404 (Acute Dermal Irritation / Corrosion)

>  <species>
rabbit

>  <type_of_coverage>
semiocclusive

>  <max_duration(hrs)>
4.0

>  <vehicle>
water

>  <edema/ erythema score>
0.0

>  <max_score>
4.0

>  <reversibility>
0.0

>  <Outcome>
0

>  <StandardizerResult>
Remove Explicit Hydrogens (ID: RemoveExplicitH)
Dearomatize (ID: Dearomatize)
Clear Stereo (ID: ClearStereo)
Wedge Clean (ID: WedgeClean)
Mesomerize (ID: Mesomerize)
Tautomerize (ID: Tautomerize)
Aromatize (ID: Aromatize)
Add Explicit Hydrogens (ID: AddExplicitH)
Neutralize (ID: Neutralize)
Clean 2D (ID: Clean2D)


$$$$

  Mrv1812 02121911042D          

 53 55  0  0  0  0            999 V2000
    1.9725    0.3287    0.0000 O   0  0  0  0  0  0  0  0  0  0  0  0
    1.3594    0.8808    0.0000 C   0  0  0  0  0  0  0  0  0  0  0  0
    1.5309    1.6877    0.0000 O   0  0  0  0  0  0  0  0  0  0  0  0
    0.5748    0.6258    0.0000 C   0  0  0  0  0  0  0  0  0  0  0  0
   -0.0927    1.1107    0.0000 N   0  0  0  0  0  0  0  0  0  0  0  0
   -0.7601    0.6258    0.0000 N   0  0  0  0  0  0  0  0  0  0  0  0
   -0.5052   -0.1588    0.0000 C   0  0  0  0  0  0  0  0  0  0  0  0
   -0.9901   -0.8262    0.0000 O   0  0  0  0  0  0  0  0  0  0  0  0
    0.3198   -0.1588    0.0000 C   0  0  0  0  0  0  0  0  0  0  0  0
    0.8047   -0.8262    0.0000 N   0  0  0  0  0  0  0  0  0  0  0  0
    0.4692   -1.5799    0.0000 N   0  0  0  0  0  0  0  0  0  0  0  0
    0.9541   -2.2474    0.0000 C   0  0  0  0  0  0  0  0  0  0  0  0
    0.6186   -3.0010    0.0000 C   0  0  0  0  0  0  0  0  0  0  0  0
    1.1035   -3.6685    0.0000 C   0  0  0  0  0  0  0  0  0  0  0  0
    1.9240   -3.5822    0.0000 C   0  0  0  0  0  0  0  0  0  0  0  0
    2.2595   -2.8286    0.0000 C   0  0  0  0  0  0  0  0  0  0  0  0
    1.7746   -2.1611    0.0000 C   0  0  0  0  0  0  0  0  0  0  0  0
    2.4089   -4.2497    0.0000 S   0  0  0  0  0  0  0  0  0  0  0  0
    3.0763   -3.7647    0.0000 O   0  0  0  0  0  0  0  0  0  0  0  0
    1.7414   -4.7346    0.0000 O   0  0  0  0  0  0  0  0  0  0  0  0
    2.8938   -4.9171    0.0000 C   0  0  0  0  0  0  0  0  0  0  0  0
    3.7143   -4.8309    0.0000 C   0  0  0  0  0  0  0  0  0  0  0  0
    4.1992   -5.4983    0.0000 O   0  0  0  0  0  0  0  0  0  0  0  0
    5.0197   -5.4121    0.0000 S   0  0  0  0  0  0  0  0  0  0  0  0
    5.8402   -5.3258    0.0000 O   0  0  0  0  0  0  0  0  0  0  0  0
    4.9335   -4.5916    0.0000 O   0  0  0  0  0  0  0  0  0  0  0  0
    5.1059   -6.2326    0.0000 O   0  0  0  0  0  0  0  0  0  0  0  0
   -1.5447    0.8808    0.0000 C   0  0  0  0  0  0  0  0  0  0  0  0
   -1.7163    1.6877    0.0000 C   0  0  0  0  0  0  0  0  0  0  0  0
   -2.5009    1.9427    0.0000 C   0  0  0  0  0  0  0  0  0  0  0  0
   -3.1140    1.3906    0.0000 C   0  0  0  0  0  0  0  0  0  0  0  0
   -2.9425    0.5837    0.0000 C   0  0  0  0  0  0  0  0  0  0  0  0
   -2.1578    0.3287    0.0000 C   0  0  0  0  0  0  0  0  0  0  0  0
   -3.8986    1.6456    0.0000 S   0  0  0  0  0  0  0  0  0  0  0  0
   -4.6832    1.9005    0.0000 O   0  0  0  0  0  0  0  0  0  0  0  0
   -3.6437    2.4302    0.0000 O   0  0  0  0  0  0  0  0  0  0  0  0
   -4.1535    0.8610    0.0000 O   0  0  0  0  0  0  0  0  0  0  0  0
    1.8010   -0.4782    0.0000 H   0  0  0  0  0  0  0  0  0  0  0  0
   -0.0927    1.9357    0.0000 H   0  0  0  0  0  0  0  0  0  0  0  0
   -0.2019   -3.0873    0.0000 H   0  0  0  0  0  0  0  0  0  0  0  0
    0.7679   -4.4221    0.0000 H   0  0  0  0  0  0  0  0  0  0  0  0
    3.0800   -2.7423    0.0000 H   0  0  0  0  0  0  0  0  0  0  0  0
    2.1102   -1.4074    0.0000 H   0  0  0  0  0  0  0  0  0  0  0  0
    2.2557   -5.4400    0.0000 H   0  0  0  0  0  0  0  0  0  0  0  0
    2.9322   -5.7412    0.0000 H   0  0  0  0  0  0  0  0  0  0  0  0
    4.3524   -4.3080    0.0000 H   0  0  0  0  0  0  0  0  0  0  0  0
    3.6759   -4.0068    0.0000 H   0  0  0  0  0  0  0  0  0  0  0  0
    6.3251   -5.9933    0.0000 H   0  0  0  0  0  0  0  0  0  0  0  0
   -1.1032    2.2398    0.0000 H   0  0  0  0  0  0  0  0  0  0  0  0
   -2.6724    2.7496    0.0000 H   0  0  0  0  0  0  0  0  0  0  0  0
   -3.5555    0.0316    0.0000 H   0  0  0  0  0  0  0  0  0  0  0  0
   -1.9863   -0.4782    0.0000 H   0  0  0  0  0  0  0  0  0  0  0  0
   -4.8547    2.7075    0.0000 H   0  0  0  0  0  0  0  0  0  0  0  0
  1  2  1  0  0  0  0
  2  3  2  0  0  0  0
  2  4  1  0  0  0  0
  5  4  1  0  0  0  0
  6  5  1  0  0  0  0
  7  6  1  0  0  0  0
  7  8  2  0  0  0  0
  9  7  1  0  0  0  0
 10  9  1  0  0  0  0
 10 11  2  0  0  0  0
 11 12  1  0  0  0  0
 13 12  4  0  0  0  0
 14 13  4  0  0  0  0
 15 14  4  0  0  0  0
 16 15  4  0  0  0  0
 17 16  4  0  0  0  0
 15 18  1  0  0  0  0
 18 19  2  0  0  0  0
 18 20  2  0  0  0  0
 18 21  1  0  0  0  0
 21 22  1  0  0  0  0
 22 23  1  0  0  0  0
 23 24  1  0  0  0  0
 24 25  1  0  0  0  0
 24 26  2  0  0  0  0
 24 27  2  0  0  0  0
  6 28  1  0  0  0  0
 29 28  4  0  0  0  0
 30 29  4  0  0  0  0
 31 30  4  0  0  0  0
 32 31  4  0  0  0  0
 33 32  4  0  0  0  0
 31 34  1  0  0  0  0
 34 35  1  0  0  0  0
 34 36  2  0  0  0  0
 34 37  2  0  0  0  0
  4  9  2  0  0  0  0
 12 17  4  0  0  0  0
 28 33  4  0  0  0  0
  1 38  1  0  0  0  0
  5 39  1  0  0  0  0
 13 40  1  0  0  0  0
 14 41  1  0  0  0  0
 16 42  1  0  0  0  0
 17 43  1  0  0  0  0
 21 44  1  0  0  0  0
 21 45  1  0  0  0  0
 22 46  1  0  0  0  0
 22 47  1  0  0  0  0
 25 48  1  0  0  0  0
 29 49  1  0  0  0  0
 30 50  1  0  0  0  0
 32 51  1  0  0  0  0
 33 52  1  0  0  0  0
 35 53  1  0  0  0  0
M  END
>  <id_input>
2981

>  <InChIKey>
JHDBOXMMELKDCY-FMQUCBEESA-N

>  <substance_name>
5-oxo-4-[(E)-2-{4-[2-(sulfooxy)ethanesulfonyl]phenyl}diazen-1-yl]-1-(4-sulfophenyl)-4,5-dihydro-1H-pyrazole-3-carboxylic acid

>  <casrn>
10149-98-1

>  <Molecular weight>
576.5342407226562

>  <guideline>
other: OECD Guideline 402 (Acute Dermal Toxicity)

>  <species>
rat

>  <type_of_coverage>
semiocclusive

>  <max_duration(hrs)>
24.0

>  <vehicle>
unchanged (no vehicle)

>  <edema/ erythema score>
0.0

>  <max_score>
4.0

>  <reversibility>
0.0

>  <Outcome>
0

>  <StandardizerResult>
Remove Explicit Hydrogens (ID: RemoveExplicitH)
Dearomatize (ID: Dearomatize)
Clear Stereo (ID: ClearStereo)
Wedge Clean (ID: WedgeClean)
Mesomerize (ID: Mesomerize)
Tautomerize (ID: Tautomerize)
Aromatize (ID: Aromatize)
Add Explicit Hydrogens (ID: AddExplicitH)
Neutralize (ID: Neutralize)
Clean 2D (ID: Clean2D)


$$$$

  Mrv1812 02121911042D          

 67 69  0  0  0  0            999 V2000
    2.5585   -5.8087    0.0000 C   0  0  0  0  0  0  0  0  0  0  0  0
    1.8440   -5.3962    0.0000 O   0  0  0  0  0  0  0  0  0  0  0  0
    1.1296   -5.8087    0.0000 C   0  0  0  0  0  0  0  0  0  0  0  0
    0.4151   -5.3962    0.0000 C   0  0  0  0  0  0  0  0  0  0  0  0
   -0.2994   -5.8087    0.0000 C   0  0  0  0  0  0  0  0  0  0  0  0
   -1.0138   -5.3962    0.0000 N   0  0  0  0  0  0  0  0  0  0  0  0
   -1.7283   -5.8087    0.0000 C   0  0  0  0  0  0  0  0  0  0  0  0
   -1.7283   -6.6337    0.0000 O   0  0  0  0  0  0  0  0  0  0  0  0
   -2.4428   -5.3962    0.0000 C   0  0  0  0  0  0  0  0  0  0  0  0
   -2.4428   -4.5712    0.0000 N   0  0  0  0  0  0  0  0  0  0  0  0
   -1.7283   -4.1587    0.0000 N   0  0  0  0  0  0  0  0  0  0  0  0
   -1.7283   -3.3337    0.0000 C   0  0  0  0  0  0  0  0  0  0  0  0
   -1.0138   -2.9212    0.0000 C   0  0  0  0  0  0  0  0  0  0  0  0
   -1.0138   -2.0962    0.0000 C   0  0  0  0  0  0  0  0  0  0  0  0
   -0.2994   -1.6837    0.0000 O   0  0  0  0  0  0  0  0  0  0  0  0
    0.4151   -2.0962    0.0000 C   0  0  0  0  0  0  0  0  0  0  0  0
   -1.7283   -1.6837    0.0000 C   0  0  0  0  0  0  0  0  0  0  0  0
   -2.4428   -2.0962    0.0000 C   0  0  0  0  0  0  0  0  0  0  0  0
   -2.4428   -2.9212    0.0000 C   0  0  0  0  0  0  0  0  0  0  0  0
   -3.1573   -3.3337    0.0000 O   0  0  0  0  0  0  0  0  0  0  0  0
   -3.1573   -4.1587    0.0000 C   0  0  0  0  0  0  0  0  0  0  0  0
   -1.7283   -0.8587    0.0000 S   0  0  0  0  0  0  0  0  0  0  0  0
   -0.9033   -0.8587    0.0000 O   0  0  0  0  0  0  0  0  0  0  0  0
   -2.5533   -0.8587    0.0000 O   0  0  0  0  0  0  0  0  0  0  0  0
   -1.7283   -0.0337    0.0000 N   0  0  0  0  0  0  0  0  0  0  0  0
   -1.0138    0.3788    0.0000 C   0  0  0  0  0  0  0  0  0  0  0  0
   -0.2994   -0.0337    0.0000 C   0  0  0  0  0  0  0  0  0  0  0  0
    0.4151    0.3788    0.0000 C   0  0  0  0  0  0  0  0  0  0  0  0
    0.4151    1.2038    0.0000 C   0  0  0  0  0  0  0  0  0  0  0  0
   -0.2994    1.6163    0.0000 C   0  0  0  0  0  0  0  0  0  0  0  0
   -1.0138    1.2038    0.0000 C   0  0  0  0  0  0  0  0  0  0  0  0
   -3.1573   -5.8087    0.0000 C   0  0  0  0  0  0  0  0  0  0  0  0
   -3.1573   -6.6337    0.0000 C   0  0  0  0  0  0  0  0  0  0  0  0
   -3.8717   -5.3962    0.0000 O   0  0  0  0  0  0  0  0  0  0  0  0
   -0.2994   -6.6337    0.0000 C   0  0  0  0  0  0  0  0  0  0  0  0
   -1.0138   -7.0462    0.0000 O   0  0  0  0  0  0  0  0  0  0  0  0
   -1.0138   -7.8712    0.0000 C   0  0  0  0  0  0  0  0  0  0  0  0
    0.4151   -7.0462    0.0000 C   0  0  0  0  0  0  0  0  0  0  0  0
    1.1296   -6.6337    0.0000 C   0  0  0  0  0  0  0  0  0  0  0  0
    1.8440   -7.0462    0.0000 Cl  0  0  0  0  0  0  0  0  0  0  0  0
    2.1460   -6.5232    0.0000 H   0  0  0  0  0  0  0  0  0  0  0  0
    3.2730   -6.2212    0.0000 H   0  0  0  0  0  0  0  0  0  0  0  0
    2.9710   -5.0942    0.0000 H   0  0  0  0  0  0  0  0  0  0  0  0
    0.4151   -4.5712    0.0000 H   0  0  0  0  0  0  0  0  0  0  0  0
   -1.0138   -4.5712    0.0000 H   0  0  0  0  0  0  0  0  0  0  0  0
   -1.7283   -4.9837    0.0000 H   0  0  0  0  0  0  0  0  0  0  0  0
   -0.2994   -3.3337    0.0000 H   0  0  0  0  0  0  0  0  0  0  0  0
    0.0026   -2.8107    0.0000 H   0  0  0  0  0  0  0  0  0  0  0  0
    1.1296   -2.5087    0.0000 H   0  0  0  0  0  0  0  0  0  0  0  0
    0.8276   -1.3817    0.0000 H   0  0  0  0  0  0  0  0  0  0  0  0
   -3.1573   -1.6837    0.0000 H   0  0  0  0  0  0  0  0  0  0  0  0
   -3.8717   -3.7462    0.0000 H   0  0  0  0  0  0  0  0  0  0  0  0
   -3.8717   -4.5712    0.0000 H   0  0  0  0  0  0  0  0  0  0  0  0
   -3.1573   -4.9837    0.0000 H   0  0  0  0  0  0  0  0  0  0  0  0
   -2.4428    0.3788    0.0000 H   0  0  0  0  0  0  0  0  0  0  0  0
   -0.2994   -0.8587    0.0000 H   0  0  0  0  0  0  0  0  0  0  0  0
    1.1296   -0.0337    0.0000 H   0  0  0  0  0  0  0  0  0  0  0  0
    1.1296    1.6163    0.0000 H   0  0  0  0  0  0  0  0  0  0  0  0
   -0.2994    2.4413    0.0000 H   0  0  0  0  0  0  0  0  0  0  0  0
   -1.7283    1.6163    0.0000 H   0  0  0  0  0  0  0  0  0  0  0  0
   -3.9823   -6.6337    0.0000 H   0  0  0  0  0  0  0  0  0  0  0  0
   -3.1573   -7.4587    0.0000 H   0  0  0  0  0  0  0  0  0  0  0  0
   -2.3323   -6.6337    0.0000 H   0  0  0  0  0  0  0  0  0  0  0  0
   -1.8388   -7.8712    0.0000 H   0  0  0  0  0  0  0  0  0  0  0  0
   -1.0138   -8.6962    0.0000 H   0  0  0  0  0  0  0  0  0  0  0  0
   -0.1888   -7.8712    0.0000 H   0  0  0  0  0  0  0  0  0  0  0  0
    0.4151   -7.8712    0.0000 H   0  0  0  0  0  0  0  0  0  0  0  0
  1  2  1  0  0  0  0
  2  3  1  0  0  0  0
  4  3  4  0  0  0  0
  5  4  4  0  0  0  0
  5  6  1  0  0  0  0
  6  7  1  0  0  0  0
  7  8  2  0  0  0  0
  7  9  1  0  0  0  0
  9 10  2  0  0  0  0
 10 11  1  0  0  0  0
 11 12  1  0  0  0  0
 13 12  4  0  0  0  0
 14 13  4  0  0  0  0
 14 15  1  0  0  0  0
 15 16  1  0  0  0  0
 17 14  4  0  0  0  0
 18 17  4  0  0  0  0
 19 18  4  0  0  0  0
 19 20  1  0  0  0  0
 20 21  1  0  0  0  0
 17 22  1  0  0  0  0
 22 23  2  0  0  0  0
 22 24  2  0  0  0  0
 22 25  1  0  0  0  0
 25 26  1  0  0  0  0
 27 26  4  0  0  0  0
 28 27  4  0  0  0  0
 29 28  4  0  0  0  0
 30 29  4  0  0  0  0
 31 30  4  0  0  0  0
  9 32  1  0  0  0  0
 32 33  1  0  0  0  0
 32 34  2  0  0  0  0
 35  5  4  0  0  0  0
 35 36  1  0  0  0  0
 36 37  1  0  0  0  0
 38 35  4  0  0  0  0
 39 38  4  0  0  0  0
 39 40  1  0  0  0  0
  3 39  4  0  0  0  0
 12 19  4  0  0  0  0
 26 31  4  0  0  0  0
  1 41  1  0  0  0  0
  1 42  1  0  0  0  0
  1 43  1  0  0  0  0
  4 44  1  0  0  0  0
  6 45  1  0  0  0  0
 11 46  1  0  0  0  0
 13 47  1  0  0  0  0
 16 48  1  0  0  0  0
 16 49  1  0  0  0  0
 16 50  1  0  0  0  0
 18 51  1  0  0  0  0
 21 52  1  0  0  0  0
 21 53  1  0  0  0  0
 21 54  1  0  0  0  0
 25 55  1  0  0  0  0
 27 56  1  0  0  0  0
 28 57  1  0  0  0  0
 29 58  1  0  0  0  0
 30 59  1  0  0  0  0
 31 60  1  0  0  0  0
 33 61  1  0  0  0  0
 33 62  1  0  0  0  0
 33 63  1  0  0  0  0
 37 64  1  0  0  0  0
 37 65  1  0  0  0  0
 37 66  1  0  0  0  0
 38 67  1  0  0  0  0
M  END
>  <id_input>
3453

>  <InChIKey>
BIJVAEAOBFTYKO-UHFFFAOYSA-N

>  <substance_name>
N-(4-chloro-2,5-dimethoxyphenyl)-2-[(E)-2-[2,5-dimethoxy-4-(phenylsulfamoyl)phenyl]diazen-1-yl]-3-oxobutanamide

>  <casrn>
12225-18-2

>  <Molecular weight>
591.0325927734375

>  <guideline>
OECD Guideline 404 (Acute Dermal Irritation / Corrosion)

>  <species>
rabbit

>  <type_of_coverage>
semiocclusive

>  <max_duration(hrs)>
4.0

>  <vehicle>
water

>  <edema/ erythema score>
0.0

>  <max_score>
4.0

>  <reversibility>
0.0

>  <Outcome>
0

>  <StandardizerResult>
Remove Explicit Hydrogens (ID: RemoveExplicitH)
Dearomatize (ID: Dearomatize)
Clear Stereo (ID: ClearStereo)
Wedge Clean (ID: WedgeClean)
Mesomerize (ID: Mesomerize)
Tautomerize (ID: Tautomerize)
Aromatize (ID: Aromatize)
Add Explicit Hydrogens (ID: AddExplicitH)
Neutralize (ID: Neutralize)
Clean 2D (ID: Clean2D)


$$$$

  Mrv1812 02121911042D          

108113  0  0  0  0            999 V2000
    1.6539    6.7182    0.0000 O   0  0  0  0  0  0  0  0  0  0  0  0
    2.3684    6.3057    0.0000 C   0  0  0  0  0  0  0  0  0  0  0  0
    3.0829    6.7182    0.0000 C   0  0  0  0  0  0  0  0  0  0  0  0
    3.0829    7.5432    0.0000 N   0  0  0  0  0  0  0  0  0  0  0  0
    3.7973    7.9557    0.0000 C   0  0  0  0  0  0  0  0  0  0  0  0
    3.7973    8.7807    0.0000 C   0  0  0  0  0  0  0  0  0  0  0  0
    4.5118    9.1932    0.0000 O   0  0  0  0  0  0  0  0  0  0  0  0
    2.3684    7.9557    0.0000 C   0  0  0  0  0  0  0  0  0  0  0  0
    2.3684    8.7807    0.0000 N   0  0  0  0  0  0  0  0  0  0  0  0
    1.6539    9.1932    0.0000 C   0  0  0  0  0  0  0  0  0  0  0  0
    1.6539   10.0182    0.0000 N   0  0  0  0  0  0  0  0  0  0  0  0
    2.3684   10.4307    0.0000 C   0  0  0  0  0  0  0  0  0  0  0  0
    3.0829   10.0182    0.0000 C   0  0  0  0  0  0  0  0  0  0  0  0
    3.7973   10.4307    0.0000 C   0  0  0  0  0  0  0  0  0  0  0  0
    3.7973   11.2557    0.0000 C   0  0  0  0  0  0  0  0  0  0  0  0
    3.0829   11.6682    0.0000 C   0  0  0  0  0  0  0  0  0  0  0  0
    2.3684   11.2557    0.0000 C   0  0  0  0  0  0  0  0  0  0  0  0
    0.9395    8.7807    0.0000 N   0  0  0  0  0  0  0  0  0  0  0  0
    0.9395    7.9557    0.0000 C   0  0  0  0  0  0  0  0  0  0  0  0
    0.2250    7.5432    0.0000 N   0  0  0  0  0  0  0  0  0  0  0  0
    0.2250    6.7182    0.0000 C   0  0  0  0  0  0  0  0  0  0  0  0
   -0.4895    6.3057    0.0000 C   0  0  0  0  0  0  0  0  0  0  0  0
   -0.4895    5.4807    0.0000 C   0  0  0  0  0  0  0  0  0  0  0  0
    0.2250    5.0682    0.0000 C   0  0  0  0  0  0  0  0  0  0  0  0
    0.2250    4.2432    0.0000 C   0  0  0  0  0  0  0  0  0  0  0  0
   -0.4895    3.8307    0.0000 C   0  0  0  0  0  0  0  0  0  0  0  0
   -0.4895    3.0057    0.0000 C   0  0  0  0  0  0  0  0  0  0  0  0
    0.2250    2.5932    0.0000 C   0  0  0  0  0  0  0  0  0  0  0  0
    0.2250    1.7682    0.0000 C   0  0  0  0  0  0  0  0  0  0  0  0
   -0.4895    1.3557    0.0000 C   0  0  0  0  0  0  0  0  0  0  0  0
   -0.4895    0.5307    0.0000 N   0  0  0  0  0  0  0  0  0  0  0  0
    0.2250    0.1182    0.0000 C   0  0  0  0  0  0  0  0  0  0  0  0
    0.2250   -0.7068    0.0000 N   0  0  0  0  0  0  0  0  0  0  0  0
    0.9395   -1.1193    0.0000 C   0  0  0  0  0  0  0  0  0  0  0  0
    0.9395   -1.9443    0.0000 N   0  0  0  0  0  0  0  0  0  0  0  0
    1.6539   -2.3568    0.0000 C   0  0  0  0  0  0  0  0  0  0  0  0
    1.6539   -3.1818    0.0000 C   0  0  0  0  0  0  0  0  0  0  0  0
    2.3684   -3.5943    0.0000 C   0  0  0  0  0  0  0  0  0  0  0  0
    3.0829   -3.1818    0.0000 C   0  0  0  0  0  0  0  0  0  0  0  0
    3.0829   -2.3568    0.0000 C   0  0  0  0  0  0  0  0  0  0  0  0
    2.3684   -1.9443    0.0000 C   0  0  0  0  0  0  0  0  0  0  0  0
    1.6539   -0.7068    0.0000 N   0  0  0  0  0  0  0  0  0  0  0  0
    1.6539    0.1182    0.0000 C   0  0  0  0  0  0  0  0  0  0  0  0
    0.9395    0.5307    0.0000 N   0  0  0  0  0  0  0  0  0  0  0  0
    2.3684    0.5307    0.0000 N   0  0  0  0  0  0  0  0  0  0  0  0
    3.0829    0.1182    0.0000 C   0  0  0  0  0  0  0  0  0  0  0  0
    3.0829   -0.7068    0.0000 C   0  0  0  0  0  0  0  0  0  0  0  0
    3.7973   -1.1193    0.0000 O   0  0  0  0  0  0  0  0  0  0  0  0
    2.3684    1.3557    0.0000 C   0  0  0  0  0  0  0  0  0  0  0  0
    1.6539    1.7682    0.0000 C   0  0  0  0  0  0  0  0  0  0  0  0
    1.6539    2.5932    0.0000 O   0  0  0  0  0  0  0  0  0  0  0  0
   -1.2040    1.7682    0.0000 C   0  0  0  0  0  0  0  0  0  0  0  0
   -1.2040    2.5932    0.0000 C   0  0  0  0  0  0  0  0  0  0  0  0
   -1.9184    3.0057    0.0000 S   0  0  0  0  0  0  0  0  0  0  0  0
   -2.3309    2.2912    0.0000 O   0  0  0  0  0  0  0  0  0  0  0  0
   -1.5059    3.7201    0.0000 O   0  0  0  0  0  0  0  0  0  0  0  0
   -2.6329    3.4182    0.0000 O   0  0  0  0  0  0  0  0  0  0  0  0
    0.9395    5.4807    0.0000 C   0  0  0  0  0  0  0  0  0  0  0  0
    0.9395    6.3057    0.0000 C   0  0  0  0  0  0  0  0  0  0  0  0
    1.6539    5.0682    0.0000 S   0  0  0  0  0  0  0  0  0  0  0  0
    2.3684    4.6557    0.0000 O   0  0  0  0  0  0  0  0  0  0  0  0
    2.0664    5.7826    0.0000 O   0  0  0  0  0  0  0  0  0  0  0  0
    1.2414    4.3537    0.0000 O   0  0  0  0  0  0  0  0  0  0  0  0
    1.6539    7.5432    0.0000 N   0  0  0  0  0  0  0  0  0  0  0  0
    0.9395    7.1307    0.0000 H   0  0  0  0  0  0  0  0  0  0  0  0
    2.9518    5.7223    0.0000 H   0  0  0  0  0  0  0  0  0  0  0  0
    2.3684    7.1307    0.0000 H   0  0  0  0  0  0  0  0  0  0  0  0
    3.5362    6.0289    0.0000 H   0  0  0  0  0  0  0  0  0  0  0  0
    3.9065    6.6702    0.0000 H   0  0  0  0  0  0  0  0  0  0  0  0
    4.2507    7.2664    0.0000 H   0  0  0  0  0  0  0  0  0  0  0  0
    4.6209    7.9077    0.0000 H   0  0  0  0  0  0  0  0  0  0  0  0
    3.3440    9.4699    0.0000 H   0  0  0  0  0  0  0  0  0  0  0  0
    2.9737    8.8286    0.0000 H   0  0  0  0  0  0  0  0  0  0  0  0
    5.2263    8.7807    0.0000 H   0  0  0  0  0  0  0  0  0  0  0  0
    0.9395   10.4307    0.0000 H   0  0  0  0  0  0  0  0  0  0  0  0
    2.4769    9.4583    0.0000 H   0  0  0  0  0  0  0  0  0  0  0  0
    4.5118   10.0182    0.0000 H   0  0  0  0  0  0  0  0  0  0  0  0
    4.5118   11.6682    0.0000 H   0  0  0  0  0  0  0  0  0  0  0  0
    3.0829   12.4932    0.0000 H   0  0  0  0  0  0  0  0  0  0  0  0
    1.6539   11.6682    0.0000 H   0  0  0  0  0  0  0  0  0  0  0  0
   -0.4895    7.9557    0.0000 H   0  0  0  0  0  0  0  0  0  0  0  0
   -1.2040    6.7182    0.0000 H   0  0  0  0  0  0  0  0  0  0  0  0
   -1.2040    5.0682    0.0000 H   0  0  0  0  0  0  0  0  0  0  0  0
    0.9395    3.8307    0.0000 H   0  0  0  0  0  0  0  0  0  0  0  0
   -1.2040    4.2432    0.0000 H   0  0  0  0  0  0  0  0  0  0  0  0
    0.9395    3.0057    0.0000 H   0  0  0  0  0  0  0  0  0  0  0  0
    0.9395    1.3557    0.0000 H   0  0  0  0  0  0  0  0  0  0  0  0
   -1.2040    0.1182    0.0000 H   0  0  0  0  0  0  0  0  0  0  0  0
    0.2250   -2.3568    0.0000 H   0  0  0  0  0  0  0  0  0  0  0  0
    0.9395   -3.5943    0.0000 H   0  0  0  0  0  0  0  0  0  0  0  0
    2.3684   -4.4193    0.0000 H   0  0  0  0  0  0  0  0  0  0  0  0
    3.7973   -3.5943    0.0000 H   0  0  0  0  0  0  0  0  0  0  0  0
    3.7973   -1.9443    0.0000 H   0  0  0  0  0  0  0  0  0  0  0  0
    2.3684   -1.1193    0.0000 H   0  0  0  0  0  0  0  0  0  0  0  0
    3.9065    0.1661    0.0000 H   0  0  0  0  0  0  0  0  0  0  0  0
    3.5362    0.8074    0.0000 H   0  0  0  0  0  0  0  0  0  0  0  0
    2.3684   -0.2943    0.0000 H   0  0  0  0  0  0  0  0  0  0  0  0
    3.7973   -0.2943    0.0000 H   0  0  0  0  0  0  0  0  0  0  0  0
    4.6223   -1.1193    0.0000 H   0  0  0  0  0  0  0  0  0  0  0  0
    3.1920    1.4036    0.0000 H   0  0  0  0  0  0  0  0  0  0  0  0
    2.8217    2.0449    0.0000 H   0  0  0  0  0  0  0  0  0  0  0  0
    1.6539    0.9432    0.0000 H   0  0  0  0  0  0  0  0  0  0  0  0
    0.9395    2.1807    0.0000 H   0  0  0  0  0  0  0  0  0  0  0  0
    2.3684    3.0057    0.0000 H   0  0  0  0  0  0  0  0  0  0  0  0
   -1.9184    1.3557    0.0000 H   0  0  0  0  0  0  0  0  0  0  0  0
   -3.1559    2.2912    0.0000 H   0  0  0  0  0  0  0  0  0  0  0  0
    1.6539    5.8932    0.0000 H   0  0  0  0  0  0  0  0  0  0  0  0
    2.3684    3.8307    0.0000 H   0  0  0  0  0  0  0  0  0  0  0  0
  1  2  1  0  0  0  0
  2  3  1  0  0  0  0
  3  4  1  0  0  0  0
  4  5  1  0  0  0  0
  5  6  1  0  0  0  0
  6  7  1  0  0  0  0
  4  8  1  0  0  0  0
  9  8  4  0  0  0  0
 10  9  4  0  0  0  0
 10 11  1  0  0  0  0
 11 12  1  0  0  0  0
 13 12  4  0  0  0  0
 14 13  4  0  0  0  0
 15 14  4  0  0  0  0
 16 15  4  0  0  0  0
 17 16  4  0  0  0  0
 18 10  4  0  0  0  0
 19 18  4  0  0  0  0
 19 20  1  0  0  0  0
 20 21  1  0  0  0  0
 22 21  4  0  0  0  0
 23 22  4  0  0  0  0
 24 23  4  0  0  0  0
 25 24  1  0  0  0  0
 25 26  2  0  0  0  0
 26 27  1  0  0  0  0
 28 27  4  0  0  0  0
 29 28  4  0  0  0  0
 30 29  4  0  0  0  0
 30 31  1  0  0  0  0
 31 32  1  0  0  0  0
 33 32  4  0  0  0  0
 34 33  4  0  0  0  0
 34 35  1  0  0  0  0
 35 36  1  0  0  0  0
 37 36  4  0  0  0  0
 38 37  4  0  0  0  0
 39 38  4  0  0  0  0
 40 39  4  0  0  0  0
 41 40  4  0  0  0  0
 42 34  4  0  0  0  0
 43 42  4  0  0  0  0
 44 43  4  0  0  0  0
 43 45  1  0  0  0  0
 45 46  1  0  0  0  0
 46 47  1  0  0  0  0
 47 48  1  0  0  0  0
 45 49  1  0  0  0  0
 49 50  1  0  0  0  0
 50 51  1  0  0  0  0
 52 30  4  0  0  0  0
 53 52  4  0  0  0  0
 53 54  1  0  0  0  0
 54 55  1  0  0  0  0
 54 56  2  0  0  0  0
 54 57  2  0  0  0  0
 58 24  4  0  0  0  0
 59 58  4  0  0  0  0
 58 60  1  0  0  0  0
 60 61  1  0  0  0  0
 60 62  2  0  0  0  0
 60 63  2  0  0  0  0
 64 19  4  0  0  0  0
  8 64  4  0  0  0  0
 12 17  4  0  0  0  0
 21 59  4  0  0  0  0
 27 53  4  0  0  0  0
 32 44  4  0  0  0  0
 36 41  4  0  0  0  0
  1 65  1  0  0  0  0
  2 66  1  0  0  0  0
  2 67  1  0  0  0  0
  3 68  1  0  0  0  0
  3 69  1  0  0  0  0
  5 70  1  0  0  0  0
  5 71  1  0  0  0  0
  6 72  1  0  0  0  0
  6 73  1  0  0  0  0
  7 74  1  0  0  0  0
 11 75  1  0  0  0  0
 13 76  1  0  0  0  0
 14 77  1  0  0  0  0
 15 78  1  0  0  0  0
 16 79  1  0  0  0  0
 17 80  1  0  0  0  0
 20 81  1  0  0  0  0
 22 82  1  0  0  0  0
 23 83  1  0  0  0  0
 25 84  1  4  0  0  0
 26 85  1  0  0  0  0
 28 86  1  0  0  0  0
 29 87  1  0  0  0  0
 31 88  1  0  0  0  0
 35 89  1  0  0  0  0
 37 90  1  0  0  0  0
 38 91  1  0  0  0  0
 39 92  1  0  0  0  0
 40 93  1  0  0  0  0
 41 94  1  0  0  0  0
 46 95  1  0  0  0  0
 46 96  1  0  0  0  0
 47 97  1  0  0  0  0
 47 98  1  0  0  0  0
 48 99  1  0  0  0  0
 49100  1  0  0  0  0
 49101  1  0  0  0  0
 50102  1  0  0  0  0
 50103  1  0  0  0  0
 51104  1  0  0  0  0
 52105  1  0  0  0  0
 55106  1  0  0  0  0
 59107  1  0  0  0  0
 61108  1  0  0  0  0
M  END
>  <id_input>
2041

>  <InChIKey>
CNGYZEMWVAWWOB-UHFFFAOYSA-N

>  <substance_name>
2,2'-ethene-1,2-diylbis[5-({4-anilino-6-[bis(2-hydroxyethyl)amino]-1,3,5-triazin-2-yl}amino)benzenesulfonic acid]

>  <casrn>
4404-43-7

>  <Molecular weight>
916.9817504882812

>  <guideline>
OECD Guideline 404 (Acute Dermal Irritation / Corrosion)

>  <species>
rabbit

>  <type_of_coverage>
occlusive

>  <max_duration(hrs)>
4.0

>  <vehicle>
water

>  <edema/ erythema score>
0.0

>  <max_score>
4.0

>  <reversibility>
0.0

>  <Outcome>
0

>  <StandardizerResult>
Remove Explicit Hydrogens (ID: RemoveExplicitH)
Dearomatize (ID: Dearomatize)
Clear Stereo (ID: ClearStereo)
Wedge Clean (ID: WedgeClean)
Mesomerize (ID: Mesomerize)
Tautomerize (ID: Tautomerize)
Aromatize (ID: Aromatize)
Add Explicit Hydrogens (ID: AddExplicitH)
Neutralize (ID: Neutralize)
Clean 2D (ID: Clean2D)


$$$$

  Mrv1812 02121911042D          

 76 79  0  0  0  0            999 V2000
   -4.0501    0.1370    0.0000 C   0  0  0  0  0  0  0  0  0  0  0  0
   -3.2655    0.3919    0.0000 C   0  0  0  0  0  0  0  0  0  0  0  0
   -2.6524   -0.1601    0.0000 C   0  0  0  0  0  0  0  0  0  0  0  0
   -1.8678    0.0948    0.0000 C   0  0  0  0  0  0  0  0  0  0  0  0
   -1.6962    0.9018    0.0000 C   0  0  0  0  0  0  0  0  0  0  0  0
   -2.3093    1.4538    0.0000 C   0  0  0  0  0  0  0  0  0  0  0  0
   -3.0939    1.1989    0.0000 C   0  0  0  0  0  0  0  0  0  0  0  0
   -3.7070    1.7509    0.0000 C   0  0  0  0  0  0  0  0  0  0  0  0
   -4.4917    1.4960    0.0000 C   0  0  0  0  0  0  0  0  0  0  0  0
   -5.1591    1.9809    0.0000 C   0  0  0  0  0  0  0  0  0  0  0  0
   -5.8265    1.4960    0.0000 C   0  0  0  0  0  0  0  0  0  0  0  0
   -5.5716    0.7114    0.0000 C   0  0  0  0  0  0  0  0  0  0  0  0
   -4.7466    0.7114    0.0000 S   0  0  0  0  0  0  0  0  0  0  0  0
   -6.0565    0.0439    0.0000 C   0  0  0  0  0  0  0  0  0  0  0  0
   -6.8770    0.1302    0.0000 C   0  0  0  0  0  0  0  0  0  0  0  0
   -7.3619   -0.5373    0.0000 C   0  0  0  0  0  0  0  0  0  0  0  0
   -7.0264   -1.2910    0.0000 C   0  0  0  0  0  0  0  0  0  0  0  0
   -6.2059   -1.3772    0.0000 C   0  0  0  0  0  0  0  0  0  0  0  0
   -5.7210   -0.7098    0.0000 C   0  0  0  0  0  0  0  0  0  0  0  0
   -7.5113   -1.9584    0.0000 F   0  0  0  0  0  0  0  0  0  0  0  0
   -0.9116    1.1567    0.0000 C   0  0  0  0  0  0  0  0  0  0  0  0
   -0.2985    0.6047    0.0000 C   0  0  0  0  0  0  0  0  0  0  0  0
    0.4861    0.8596    0.0000 C   0  0  0  0  0  0  0  0  0  0  0  0
    0.6576    1.6666    0.0000 C   0  0  0  0  0  0  0  0  0  0  0  0
    0.0445    2.2186    0.0000 C   0  0  0  0  0  0  0  0  0  0  0  0
   -0.7401    1.9637    0.0000 O   0  0  0  0  0  0  0  0  0  0  0  0
    0.2161    3.0256    0.0000 C   0  0  0  0  0  0  0  0  0  0  0  0
   -0.3970    3.5776    0.0000 O   0  0  0  0  0  0  0  0  0  0  0  0
   -0.2255    4.3846    0.0000 C   0  0  0  0  0  0  0  0  0  0  0  0
   -0.8386    4.9366    0.0000 O   0  0  0  0  0  0  0  0  0  0  0  0
    0.5591    4.6396    0.0000 C   0  0  0  0  0  0  0  0  0  0  0  0
    1.4423    1.9215    0.0000 O   0  0  0  0  0  0  0  0  0  0  0  0
    1.6138    2.7285    0.0000 C   0  0  0  0  0  0  0  0  0  0  0  0
    1.0007    3.2805    0.0000 O   0  0  0  0  0  0  0  0  0  0  0  0
    2.3984    2.9835    0.0000 C   0  0  0  0  0  0  0  0  0  0  0  0
    1.0992    0.3076    0.0000 O   0  0  0  0  0  0  0  0  0  0  0  0
    1.8838    0.5625    0.0000 C   0  0  0  0  0  0  0  0  0  0  0  0
    2.0554    1.3695    0.0000 O   0  0  0  0  0  0  0  0  0  0  0  0
    2.4969    0.0105    0.0000 C   0  0  0  0  0  0  0  0  0  0  0  0
   -0.4700   -0.2023    0.0000 O   0  0  0  0  0  0  0  0  0  0  0  0
    0.1431   -0.7543    0.0000 C   0  0  0  0  0  0  0  0  0  0  0  0
    0.9277   -0.4994    0.0000 O   0  0  0  0  0  0  0  0  0  0  0  0
   -0.0285   -1.5613    0.0000 C   0  0  0  0  0  0  0  0  0  0  0  0
   -4.8260   -0.1434    0.0000 H   0  0  0  0  0  0  0  0  0  0  0  0
   -4.2041   -0.6735    0.0000 H   0  0  0  0  0  0  0  0  0  0  0  0
   -3.4310   -0.4084    0.0000 H   0  0  0  0  0  0  0  0  0  0  0  0
   -2.3996   -0.9454    0.0000 H   0  0  0  0  0  0  0  0  0  0  0  0
   -1.2547   -0.4572    0.0000 H   0  0  0  0  0  0  0  0  0  0  0  0
   -2.1378    2.2608    0.0000 H   0  0  0  0  0  0  0  0  0  0  0  0
   -3.1916    2.3951    0.0000 H   0  0  0  0  0  0  0  0  0  0  0  0
   -3.9159    2.5490    0.0000 H   0  0  0  0  0  0  0  0  0  0  0  0
   -5.1591    2.8059    0.0000 H   0  0  0  0  0  0  0  0  0  0  0  0
   -6.6112    1.7509    0.0000 H   0  0  0  0  0  0  0  0  0  0  0  0
   -7.2126    0.8838    0.0000 H   0  0  0  0  0  0  0  0  0  0  0  0
   -8.1824   -0.4511    0.0000 H   0  0  0  0  0  0  0  0  0  0  0  0
   -5.8703   -2.1309    0.0000 H   0  0  0  0  0  0  0  0  0  0  0  0
   -4.9005   -0.7960    0.0000 H   0  0  0  0  0  0  0  0  0  0  0  0
   -1.0831    0.3498    0.0000 H   0  0  0  0  0  0  0  0  0  0  0  0
    0.3146    0.0527    0.0000 H   0  0  0  0  0  0  0  0  0  0  0  0
   -0.1270    1.4117    0.0000 H   0  0  0  0  0  0  0  0  0  0  0  0
    1.2707    1.1146    0.0000 H   0  0  0  0  0  0  0  0  0  0  0  0
    0.8292    2.4736    0.0000 H   0  0  0  0  0  0  0  0  0  0  0  0
    0.3876    3.8326    0.0000 H   0  0  0  0  0  0  0  0  0  0  0  0
   -0.5686    2.7707    0.0000 H   0  0  0  0  0  0  0  0  0  0  0  0
    1.2942    4.2650    0.0000 H   0  0  0  0  0  0  0  0  0  0  0  0
    1.1112    5.2526    0.0000 H   0  0  0  0  0  0  0  0  0  0  0  0
    0.1098    5.3315    0.0000 H   0  0  0  0  0  0  0  0  0  0  0  0
    2.6533    2.1988    0.0000 H   0  0  0  0  0  0  0  0  0  0  0  0
    3.1830    3.2384    0.0000 H   0  0  0  0  0  0  0  0  0  0  0  0
    2.1435    3.7681    0.0000 H   0  0  0  0  0  0  0  0  0  0  0  0
    1.9449   -0.6026    0.0000 H   0  0  0  0  0  0  0  0  0  0  0  0
    3.1100   -0.5415    0.0000 H   0  0  0  0  0  0  0  0  0  0  0  0
    3.0490    0.6236    0.0000 H   0  0  0  0  0  0  0  0  0  0  0  0
   -0.8354   -1.3898    0.0000 H   0  0  0  0  0  0  0  0  0  0  0  0
   -0.2000   -2.3683    0.0000 H   0  0  0  0  0  0  0  0  0  0  0  0
    0.7785   -1.7328    0.0000 H   0  0  0  0  0  0  0  0  0  0  0  0
  1  2  1  0  0  0  0
  3  2  4  0  0  0  0
  4  3  4  0  0  0  0
  5  4  4  0  0  0  0
  6  5  4  0  0  0  0
  7  6  4  0  0  0  0
  7  8  1  0  0  0  0
  8  9  1  0  0  0  0
 10  9  4  0  0  0  0
 11 10  4  0  0  0  0
 12 11  4  0  0  0  0
 13 12  4  0  0  0  0
 12 14  1  0  0  0  0
 15 14  4  0  0  0  0
 16 15  4  0  0  0  0
 17 16  4  0  0  0  0
 18 17  4  0  0  0  0
 19 18  4  0  0  0  0
 17 20  1  0  0  0  0
  5 21  1  0  0  0  0
 22 21  1  0  0  0  0
 23 22  1  0  0  0  0
 24 23  1  0  0  0  0
 25 24  1  0  0  0  0
 26 25  1  0  0  0  0
 25 27  1  0  0  0  0
 27 28  1  0  0  0  0
 28 29  1  0  0  0  0
 29 30  2  0  0  0  0
 29 31  1  0  0  0  0
 24 32  1  0  0  0  0
 32 33  1  0  0  0  0
 33 34  2  0  0  0  0
 33 35  1  0  0  0  0
 23 36  1  0  0  0  0
 36 37  1  0  0  0  0
 37 38  2  0  0  0  0
 37 39  1  0  0  0  0
 22 40  1  0  0  0  0
 40 41  1  0  0  0  0
 41 42  2  0  0  0  0
 41 43  1  0  0  0  0
  2  7  4  0  0  0  0
  9 13  4  0  0  0  0
 14 19  4  0  0  0  0
 21 26  1  0  0  0  0
  1 44  1  0  0  0  0
  1 45  1  0  0  0  0
  1 46  1  0  0  0  0
  3 47  1  0  0  0  0
  4 48  1  0  0  0  0
  6 49  1  0  0  0  0
  8 50  1  0  0  0  0
  8 51  1  0  0  0  0
 10 52  1  0  0  0  0
 11 53  1  0  0  0  0
 15 54  1  0  0  0  0
 16 55  1  0  0  0  0
 18 56  1  0  0  0  0
 19 57  1  0  0  0  0
 21 58  1  0  0  0  0
 22 59  1  0  0  0  0
 23 60  1  0  0  0  0
 24 61  1  0  0  0  0
 25 62  1  0  0  0  0
 27 63  1  0  0  0  0
 27 64  1  0  0  0  0
 31 65  1  0  0  0  0
 31 66  1  0  0  0  0
 31 67  1  0  0  0  0
 35 68  1  0  0  0  0
 35 69  1  0  0  0  0
 35 70  1  0  0  0  0
 39 71  1  0  0  0  0
 39 72  1  0  0  0  0
 39 73  1  0  0  0  0
 43 74  1  0  0  0  0
 43 75  1  0  0  0  0
 43 76  1  0  0  0  0
M  END
>  <id_input>
1633

>  <InChIKey>
XYBGJUIUCFENGS-UHFFFAOYSA-N

>  <substance_name>
-

>  <casrn>
866607-35-4

>  <Molecular weight>
612.6624145507812

>  <guideline>
OECD Guideline 404 (Acute Dermal Irritation / Corrosion)

>  <species>
rabbit

>  <type_of_coverage>
semiocclusive

>  <max_duration(hrs)>
4.0

>  <vehicle>
water

>  <edema/ erythema score>
0.0

>  <max_score>
4.0

>  <reversibility>
0.0

>  <Outcome>
0

>  <StandardizerResult>
Remove Explicit Hydrogens (ID: RemoveExplicitH)
Dearomatize (ID: Dearomatize)
Clear Stereo (ID: ClearStereo)
Wedge Clean (ID: WedgeClean)
Mesomerize (ID: Mesomerize)
Tautomerize (ID: Tautomerize)
Aromatize (ID: Aromatize)
Add Explicit Hydrogens (ID: AddExplicitH)
Neutralize (ID: Neutralize)
Clean 2D (ID: Clean2D)


$$$$

  Mrv1812 02121911042D          

 56 59  0  0  0  0            999 V2000
   -4.2073    1.7331    0.0000 C   0  0  0  0  0  0  0  0  0  0  0  0
   -3.4928    1.3206    0.0000 C   0  0  0  0  0  0  0  0  0  0  0  0
   -2.7783    1.7331    0.0000 O   0  0  0  0  0  0  0  0  0  0  0  0
   -3.4928    0.4956    0.0000 N   0  0  0  0  0  0  0  0  0  0  0  0
   -2.7783    0.0831    0.0000 C   0  0  0  0  0  0  0  0  0  0  0  0
   -2.7783   -0.7419    0.0000 C   0  0  0  0  0  0  0  0  0  0  0  0
   -2.0639   -1.1544    0.0000 C   0  0  0  0  0  0  0  0  0  0  0  0
   -1.3494   -0.7419    0.0000 C   0  0  0  0  0  0  0  0  0  0  0  0
   -0.6349   -1.1544    0.0000 N   0  0  0  0  0  0  0  0  0  0  0  0
   -0.6349   -1.9794    0.0000 C   0  0  0  0  0  0  0  0  0  0  0  0
   -1.3494   -2.3919    0.0000 O   0  0  0  0  0  0  0  0  0  0  0  0
    0.0795   -2.3919    0.0000 C   0  0  0  0  0  0  0  0  0  0  0  0
    0.7940   -1.9794    0.0000 C   0  0  0  0  0  0  0  0  0  0  0  0
    1.5085   -2.3919    0.0000 C   0  0  0  0  0  0  0  0  0  0  0  0
    2.2230   -1.9794    0.0000 C   0  0  0  0  0  0  0  0  0  0  0  0
    2.9374   -2.3919    0.0000 C   0  0  0  0  0  0  0  0  0  0  0  0
    2.9374   -3.2169    0.0000 C   0  0  0  0  0  0  0  0  0  0  0  0
    2.2230   -3.6294    0.0000 C   0  0  0  0  0  0  0  0  0  0  0  0
    1.5085   -3.2169    0.0000 C   0  0  0  0  0  0  0  0  0  0  0  0
    0.7940   -3.6294    0.0000 C   0  0  0  0  0  0  0  0  0  0  0  0
    0.7940   -4.4544    0.0000 N   0  0  0  0  0  0  0  0  0  0  0  0
    0.0795   -4.8669    0.0000 N   0  0  0  0  0  0  0  0  0  0  0  0
    0.0795   -5.6919    0.0000 C   0  0  0  0  0  0  0  0  0  0  0  0
   -0.6349   -6.1044    0.0000 C   0  0  0  0  0  0  0  0  0  0  0  0
   -0.6349   -6.9294    0.0000 C   0  0  0  0  0  0  0  0  0  0  0  0
    0.0795   -7.3419    0.0000 C   0  0  0  0  0  0  0  0  0  0  0  0
    0.7940   -6.9294    0.0000 C   0  0  0  0  0  0  0  0  0  0  0  0
    0.7940   -6.1044    0.0000 C   0  0  0  0  0  0  0  0  0  0  0  0
    1.5085   -5.6919    0.0000 Cl  0  0  0  0  0  0  0  0  0  0  0  0
   -1.3494   -7.3419    0.0000 C   0  0  0  0  0  0  0  0  0  0  0  0
   -1.3494   -8.1669    0.0000 N   0  0  0  0  0  0  0  0  0  0  0  0
   -2.0639   -6.9294    0.0000 O   0  0  0  0  0  0  0  0  0  0  0  0
    0.0795   -3.2169    0.0000 C   0  0  0  0  0  0  0  0  0  0  0  0
   -0.6349   -3.6294    0.0000 O   0  0  0  0  0  0  0  0  0  0  0  0
   -1.3494    0.0831    0.0000 C   0  0  0  0  0  0  0  0  0  0  0  0
   -2.0639    0.4956    0.0000 C   0  0  0  0  0  0  0  0  0  0  0  0
   -3.7948    2.4476    0.0000 H   0  0  0  0  0  0  0  0  0  0  0  0
   -4.9218    2.1456    0.0000 H   0  0  0  0  0  0  0  0  0  0  0  0
   -4.6198    1.0186    0.0000 H   0  0  0  0  0  0  0  0  0  0  0  0
   -4.2073    0.0831    0.0000 H   0  0  0  0  0  0  0  0  0  0  0  0
   -3.4928   -1.1544    0.0000 H   0  0  0  0  0  0  0  0  0  0  0  0
   -2.0639   -1.9794    0.0000 H   0  0  0  0  0  0  0  0  0  0  0  0
    0.0795   -0.7419    0.0000 H   0  0  0  0  0  0  0  0  0  0  0  0
    0.7940   -1.1544    0.0000 H   0  0  0  0  0  0  0  0  0  0  0  0
    2.2230   -1.1544    0.0000 H   0  0  0  0  0  0  0  0  0  0  0  0
    3.6519   -1.9794    0.0000 H   0  0  0  0  0  0  0  0  0  0  0  0
    3.6519   -3.6294    0.0000 H   0  0  0  0  0  0  0  0  0  0  0  0
    2.2230   -4.4544    0.0000 H   0  0  0  0  0  0  0  0  0  0  0  0
   -1.3494   -5.6919    0.0000 H   0  0  0  0  0  0  0  0  0  0  0  0
    0.0795   -8.1669    0.0000 H   0  0  0  0  0  0  0  0  0  0  0  0
    1.5085   -7.3419    0.0000 H   0  0  0  0  0  0  0  0  0  0  0  0
   -2.0639   -8.5794    0.0000 H   0  0  0  0  0  0  0  0  0  0  0  0
   -0.6349   -8.5794    0.0000 H   0  0  0  0  0  0  0  0  0  0  0  0
   -1.3494   -3.2169    0.0000 H   0  0  0  0  0  0  0  0  0  0  0  0
   -0.6349    0.4956    0.0000 H   0  0  0  0  0  0  0  0  0  0  0  0
   -2.0639    1.3206    0.0000 H   0  0  0  0  0  0  0  0  0  0  0  0
  1  2  1  0  0  0  0
  2  3  2  0  0  0  0
  2  4  1  0  0  0  0
  4  5  1  0  0  0  0
  6  5  4  0  0  0  0
  7  6  4  0  0  0  0
  8  7  4  0  0  0  0
  8  9  1  0  0  0  0
  9 10  1  0  0  0  0
 10 11  2  0  0  0  0
 10 12  1  0  0  0  0
 13 12  4  0  0  0  0
 14 13  4  0  0  0  0
 14 15  4  0  0  0  0
 15 16  4  0  0  0  0
 16 17  4  0  0  0  0
 17 18  4  0  0  0  0
 18 19  4  0  0  0  0
 20 19  4  0  0  0  0
 21 20  1  4  0  0  0
 21 22  2  0  0  0  0
 22 23  1  0  0  0  0
 24 23  4  0  0  0  0
 25 24  4  0  0  0  0
 26 25  4  0  0  0  0
 27 26  4  0  0  0  0
 28 27  4  0  0  0  0
 28 29  1  0  0  0  0
 25 30  1  0  0  0  0
 30 31  1  0  0  0  0
 30 32  2  0  0  0  0
 33 20  4  0  0  0  0
 33 34  1  0  0  0  0
 35  8  4  0  0  0  0
 36 35  4  0  0  0  0
  5 36  4  0  0  0  0
 12 33  4  0  0  0  0
 19 14  4  0  0  0  0
 23 28  4  0  0  0  0
  1 37  1  0  0  0  0
  1 38  1  0  0  0  0
  1 39  1  0  0  0  0
  4 40  1  0  0  0  0
  6 41  1  0  0  0  0
  7 42  1  0  0  0  0
  9 43  1  0  0  0  0
 13 44  1  0  0  0  0
 15 45  1  0  0  0  0
 16 46  1  0  0  0  0
 17 47  1  0  0  0  0
 18 48  1  0  0  0  0
 24 49  1  0  0  0  0
 26 50  1  0  0  0  0
 27 51  1  0  0  0  0
 31 52  1  0  0  0  0
 31 53  1  0  0  0  0
 34 54  1  0  0  0  0
 35 55  1  0  0  0  0
 36 56  1  0  0  0  0
M  END
>  <id_input>
3436

>  <InChIKey>
UHZVOVCIPHZPEI-UHFFFAOYSA-N

>  <substance_name>
N-(4-acetamidophenyl)-4-[(5-carbamoyl-2-chlorophenyl)diazenyl]-3-hydroxy-2-naphthamide

>  <casrn>
12236-64-5

>  <Molecular weight>
501.9211120605469

>  <guideline>
OECD Guideline 404 (Acute Dermal Irritation / Corrosion)

>  <species>
rabbit

>  <type_of_coverage>
semiocclusive

>  <max_duration(hrs)>
4.0

>  <vehicle>
water

>  <edema/ erythema score>
0.0

>  <max_score>
4.0

>  <reversibility>
0.0

>  <Outcome>
0

>  <StandardizerResult>
Remove Explicit Hydrogens (ID: RemoveExplicitH)
Dearomatize (ID: Dearomatize)
Clear Stereo (ID: ClearStereo)
Wedge Clean (ID: WedgeClean)
Mesomerize (ID: Mesomerize)
Tautomerize (ID: Tautomerize)
Aromatize (ID: Aromatize)
Add Explicit Hydrogens (ID: AddExplicitH)
Neutralize (ID: Neutralize)
Clean 2D (ID: Clean2D)


$$$$

  Mrv1812 02121911042D          

 86 91  0  0  0  0            999 V2000
   -1.7762   -0.8458    0.0000 C   0  0  0  0  0  0  0  0  0  0  0  0
   -1.7762   -1.6708    0.0000 C   0  0  0  0  0  0  0  0  0  0  0  0
   -1.0617   -2.0833    0.0000 O   0  0  0  0  0  0  0  0  0  0  0  0
   -2.4907   -2.0833    0.0000 C   0  0  0  0  0  0  0  0  0  0  0  0
   -2.4907   -2.9083    0.0000 N   0  0  0  0  0  0  0  0  0  0  0  0
   -1.7762   -3.3208    0.0000 N   0  0  0  0  0  0  0  0  0  0  0  0
   -1.7762   -4.1458    0.0000 C   0  0  0  0  0  0  0  0  0  0  0  0
   -2.4907   -4.5583    0.0000 C   0  0  0  0  0  0  0  0  0  0  0  0
   -2.4907   -5.3833    0.0000 C   0  0  0  0  0  0  0  0  0  0  0  0
   -1.7762   -5.7958    0.0000 C   0  0  0  0  0  0  0  0  0  0  0  0
   -1.0617   -5.3833    0.0000 C   0  0  0  0  0  0  0  0  0  0  0  0
   -1.0617   -4.5583    0.0000 C   0  0  0  0  0  0  0  0  0  0  0  0
   -0.3473   -4.1458    0.0000 O   0  0  0  0  0  0  0  0  0  0  0  0
    0.3672   -4.5583    0.0000 C   0  0  0  0  0  0  0  0  0  0  0  0
    1.0817   -4.1458    0.0000 C   0  0  0  0  0  0  0  0  0  0  0  0
    1.7961   -4.5583    0.0000 O   0  0  0  0  0  0  0  0  0  0  0  0
    2.5106   -4.1458    0.0000 C   0  0  0  0  0  0  0  0  0  0  0  0
    2.5106   -3.3208    0.0000 C   0  0  0  0  0  0  0  0  0  0  0  0
    3.2251   -2.9083    0.0000 C   0  0  0  0  0  0  0  0  0  0  0  0
    3.9396   -3.3208    0.0000 C   0  0  0  0  0  0  0  0  0  0  0  0
    3.9396   -4.1458    0.0000 C   0  0  0  0  0  0  0  0  0  0  0  0
    3.2251   -4.5583    0.0000 C   0  0  0  0  0  0  0  0  0  0  0  0
    3.2251   -5.3833    0.0000 N   0  0  0  0  0  0  0  0  0  0  0  0
    3.9396   -5.7958    0.0000 N   0  0  0  0  0  0  0  0  0  0  0  0
    3.9396   -6.6208    0.0000 C   0  0  0  0  0  0  0  0  0  0  0  0
    3.2251   -7.0333    0.0000 C   0  0  0  0  0  0  0  0  0  0  0  0
    3.2251   -7.8583    0.0000 C   0  0  0  0  0  0  0  0  0  0  0  0
    2.5106   -6.6208    0.0000 O   0  0  0  0  0  0  0  0  0  0  0  0
    4.6540   -7.0333    0.0000 C   0  0  0  0  0  0  0  0  0  0  0  0
    5.3685   -6.6208    0.0000 O   0  0  0  0  0  0  0  0  0  0  0  0
    4.6540   -7.8583    0.0000 N   0  0  0  0  0  0  0  0  0  0  0  0
    5.3685   -8.2708    0.0000 C   0  0  0  0  0  0  0  0  0  0  0  0
    5.3685   -9.0958    0.0000 C   0  0  0  0  0  0  0  0  0  0  0  0
    6.0830   -9.5083    0.0000 C   0  0  0  0  0  0  0  0  0  0  0  0
    6.7974   -9.0958    0.0000 C   0  0  0  0  0  0  0  0  0  0  0  0
    7.5821   -9.3508    0.0000 N   0  0  0  0  0  0  0  0  0  0  0  0
    8.0670   -8.6833    0.0000 C   0  0  0  0  0  0  0  0  0  0  0  0
    8.8920   -8.6833    0.0000 O   0  0  0  0  0  0  0  0  0  0  0  0
    7.5821   -8.0159    0.0000 N   0  0  0  0  0  0  0  0  0  0  0  0
    6.7974   -8.2708    0.0000 C   0  0  0  0  0  0  0  0  0  0  0  0
    6.0830   -7.8583    0.0000 C   0  0  0  0  0  0  0  0  0  0  0  0
   -3.2052   -1.6708    0.0000 C   0  0  0  0  0  0  0  0  0  0  0  0
   -3.2052   -0.8458    0.0000 O   0  0  0  0  0  0  0  0  0  0  0  0
   -3.9196   -2.0833    0.0000 N   0  0  0  0  0  0  0  0  0  0  0  0
   -4.6341   -1.6708    0.0000 C   0  0  0  0  0  0  0  0  0  0  0  0
   -4.6341   -0.8458    0.0000 C   0  0  0  0  0  0  0  0  0  0  0  0
   -5.3486   -0.4333    0.0000 C   0  0  0  0  0  0  0  0  0  0  0  0
   -6.0630   -0.8458    0.0000 C   0  0  0  0  0  0  0  0  0  0  0  0
   -6.8477   -0.5909    0.0000 N   0  0  0  0  0  0  0  0  0  0  0  0
   -7.3326   -1.2583    0.0000 C   0  0  0  0  0  0  0  0  0  0  0  0
   -8.1576   -1.2583    0.0000 O   0  0  0  0  0  0  0  0  0  0  0  0
   -6.8477   -1.9258    0.0000 N   0  0  0  0  0  0  0  0  0  0  0  0
   -6.0630   -1.6708    0.0000 C   0  0  0  0  0  0  0  0  0  0  0  0
   -5.3486   -2.0833    0.0000 C   0  0  0  0  0  0  0  0  0  0  0  0
   -0.9512   -0.8458    0.0000 H   0  0  0  0  0  0  0  0  0  0  0  0
   -1.7762   -0.0208    0.0000 H   0  0  0  0  0  0  0  0  0  0  0  0
   -2.6012   -0.8458    0.0000 H   0  0  0  0  0  0  0  0  0  0  0  0
   -1.0617   -2.9083    0.0000 H   0  0  0  0  0  0  0  0  0  0  0  0
   -3.2052   -4.1458    0.0000 H   0  0  0  0  0  0  0  0  0  0  0  0
   -3.2052   -5.7958    0.0000 H   0  0  0  0  0  0  0  0  0  0  0  0
   -1.7762   -6.6208    0.0000 H   0  0  0  0  0  0  0  0  0  0  0  0
   -0.3473   -5.7958    0.0000 H   0  0  0  0  0  0  0  0  0  0  0  0
   -0.0031   -5.2956    0.0000 H   0  0  0  0  0  0  0  0  0  0  0  0
    0.7375   -5.2956    0.0000 H   0  0  0  0  0  0  0  0  0  0  0  0
    1.4519   -3.4086    0.0000 H   0  0  0  0  0  0  0  0  0  0  0  0
    0.7114   -3.4086    0.0000 H   0  0  0  0  0  0  0  0  0  0  0  0
    1.7961   -2.9083    0.0000 H   0  0  0  0  0  0  0  0  0  0  0  0
    3.2251   -2.0833    0.0000 H   0  0  0  0  0  0  0  0  0  0  0  0
    4.6540   -2.9083    0.0000 H   0  0  0  0  0  0  0  0  0  0  0  0
    4.6540   -4.5583    0.0000 H   0  0  0  0  0  0  0  0  0  0  0  0
    2.5106   -5.7958    0.0000 H   0  0  0  0  0  0  0  0  0  0  0  0
    2.4001   -7.8583    0.0000 H   0  0  0  0  0  0  0  0  0  0  0  0
    3.2251   -8.6833    0.0000 H   0  0  0  0  0  0  0  0  0  0  0  0
    4.0501   -7.8583    0.0000 H   0  0  0  0  0  0  0  0  0  0  0  0
    4.4405   -8.6552    0.0000 H   0  0  0  0  0  0  0  0  0  0  0  0
    4.6540   -9.5083    0.0000 H   0  0  0  0  0  0  0  0  0  0  0  0
    6.0830  -10.3333    0.0000 H   0  0  0  0  0  0  0  0  0  0  0  0
    7.8370  -10.1354    0.0000 H   0  0  0  0  0  0  0  0  0  0  0  0
    7.8370   -7.2313    0.0000 H   0  0  0  0  0  0  0  0  0  0  0  0
    6.0830   -7.0333    0.0000 H   0  0  0  0  0  0  0  0  0  0  0  0
   -3.9196   -2.9083    0.0000 H   0  0  0  0  0  0  0  0  0  0  0  0
   -3.9196   -0.4333    0.0000 H   0  0  0  0  0  0  0  0  0  0  0  0
   -5.3486    0.3917    0.0000 H   0  0  0  0  0  0  0  0  0  0  0  0
   -7.1026    0.1937    0.0000 H   0  0  0  0  0  0  0  0  0  0  0  0
   -7.1026   -2.7104    0.0000 H   0  0  0  0  0  0  0  0  0  0  0  0
   -5.3486   -2.9083    0.0000 H   0  0  0  0  0  0  0  0  0  0  0  0
  1  2  1  0  0  0  0
  2  3  2  0  0  0  0
  2  4  1  0  0  0  0
  4  5  2  0  0  0  0
  5  6  1  0  0  0  0
  6  7  1  0  0  0  0
  8  7  4  0  0  0  0
  9  8  4  0  0  0  0
 10  9  4  0  0  0  0
 11 10  4  0  0  0  0
 12 11  4  0  0  0  0
 12 13  1  0  0  0  0
 13 14  1  0  0  0  0
 14 15  1  0  0  0  0
 15 16  1  0  0  0  0
 16 17  1  0  0  0  0
 18 17  4  0  0  0  0
 19 18  4  0  0  0  0
 20 19  4  0  0  0  0
 21 20  4  0  0  0  0
 22 21  4  0  0  0  0
 22 23  1  0  0  0  0
 24 23  1  0  0  0  0
 24 25  2  0  0  0  0
 25 26  1  0  0  0  0
 26 27  1  0  0  0  0
 26 28  2  0  0  0  0
 25 29  1  0  0  0  0
 29 30  2  0  0  0  0
 29 31  1  0  0  0  0
 31 32  1  0  0  0  0
 33 32  4  0  0  0  0
 34 33  4  0  0  0  0
 35 34  4  0  0  0  0
 35 36  1  0  0  0  0
 36 37  1  0  0  0  0
 37 38  2  0  0  0  0
 37 39  1  0  0  0  0
 39 40  1  0  0  0  0
 41 40  4  0  0  0  0
  4 42  1  0  0  0  0
 42 43  2  0  0  0  0
 42 44  1  0  0  0  0
 44 45  1  0  0  0  0
 46 45  4  0  0  0  0
 47 46  4  0  0  0  0
 48 47  4  0  0  0  0
 48 49  1  0  0  0  0
 49 50  1  0  0  0  0
 50 51  2  0  0  0  0
 50 52  1  0  0  0  0
 52 53  1  0  0  0  0
 54 53  4  0  0  0  0
  7 12  4  0  0  0  0
 17 22  4  0  0  0  0
 32 41  4  0  0  0  0
 40 35  4  0  0  0  0
 45 54  4  0  0  0  0
 53 48  4  0  0  0  0
  1 55  1  0  0  0  0
  1 56  1  0  0  0  0
  1 57  1  0  0  0  0
  6 58  1  0  0  0  0
  8 59  1  0  0  0  0
  9 60  1  0  0  0  0
 10 61  1  0  0  0  0
 11 62  1  0  0  0  0
 14 63  1  0  0  0  0
 14 64  1  0  0  0  0
 15 65  1  0  0  0  0
 15 66  1  0  0  0  0
 18 67  1  0  0  0  0
 19 68  1  0  0  0  0
 20 69  1  0  0  0  0
 21 70  1  0  0  0  0
 23 71  1  0  0  0  0
 27 72  1  0  0  0  0
 27 73  1  0  0  0  0
 27 74  1  0  0  0  0
 31 75  1  0  0  0  0
 33 76  1  0  0  0  0
 34 77  1  0  0  0  0
 36 78  1  0  0  0  0
 39 79  1  0  0  0  0
 41 80  1  0  0  0  0
 44 81  1  0  0  0  0
 46 82  1  0  0  0  0
 47 83  1  0  0  0  0
 49 84  1  0  0  0  0
 52 85  1  0  0  0  0
 54 86  1  0  0  0  0
M  END
>  <id_input>
2038

>  <InChIKey>
IONCLTBAJROELI-UHFFFAOYSA-N

>  <substance_name>
2,2'-[ethylenebis(oxyphenyl-2,1-eneazo)]bis[N-(2,3-dihydro-2-oxo-1H-benzimidazol-5-yl)-3-oxobutyramide

>  <casrn>
77804-81-0

>  <Molecular weight>
732.7014770507812

>  <guideline>
OECD Guideline 404 (Acute Dermal Irritation / Corrosion)

>  <species>
rabbit

>  <type_of_coverage>
semiocclusive

>  <max_duration(hrs)>
4.0

>  <vehicle>
water

>  <edema/ erythema score>
0.33

>  <max_score>
4.0

>  <reversibility>
0.0

>  <Outcome>
0

>  <StandardizerResult>
Remove Explicit Hydrogens (ID: RemoveExplicitH)
Dearomatize (ID: Dearomatize)
Clear Stereo (ID: ClearStereo)
Wedge Clean (ID: WedgeClean)
Mesomerize (ID: Mesomerize)
Tautomerize (ID: Tautomerize)
Aromatize (ID: Aromatize)
Add Explicit Hydrogens (ID: AddExplicitH)
Neutralize (ID: Neutralize)
Clean 2D (ID: Clean2D)


$$$$

  Mrv1812 02121911042D          

 43 45  0  0  0  0            999 V2000
   -2.1812    1.4556    0.0000 C   0  0  0  0  0  0  0  0  0  0  0  0
   -1.9263    0.6710    0.0000 C   0  0  0  0  0  0  0  0  0  0  0  0
   -1.1193    0.4995    0.0000 C   0  0  0  0  0  0  0  0  0  0  0  0
   -0.8644   -0.2852    0.0000 C   0  0  0  0  0  0  0  0  0  0  0  0
   -1.3493   -0.9526    0.0000 N   0  0  0  0  0  0  0  0  0  0  0  0
   -0.8644   -1.6200    0.0000 C   0  0  0  0  0  0  0  0  0  0  0  0
   -0.0798   -1.3651    0.0000 C   0  0  0  0  0  0  0  0  0  0  0  0
   -0.0798   -0.5401    0.0000 N   0  0  0  0  0  0  0  0  0  0  0  0
    0.6347   -0.1276    0.0000 N   0  0  0  0  0  0  0  0  0  0  0  0
    1.3492   -0.5401    0.0000 C   0  0  0  0  0  0  0  0  0  0  0  0
    1.3492   -1.3651    0.0000 N   0  0  0  0  0  0  0  0  0  0  0  0
    0.6347   -1.7776    0.0000 C   0  0  0  0  0  0  0  0  0  0  0  0
    0.6347   -2.6026    0.0000 O   0  0  0  0  0  0  0  0  0  0  0  0
    2.0636   -0.1276    0.0000 C   0  0  0  0  0  0  0  0  0  0  0  0
    2.7781   -0.5401    0.0000 C   0  0  0  0  0  0  0  0  0  0  0  0
    3.4926   -0.1276    0.0000 C   0  0  0  0  0  0  0  0  0  0  0  0
    3.4926    0.6974    0.0000 C   0  0  0  0  0  0  0  0  0  0  0  0
    2.7781    1.1099    0.0000 C   0  0  0  0  0  0  0  0  0  0  0  0
    2.0636    0.6974    0.0000 C   0  0  0  0  0  0  0  0  0  0  0  0
    1.3492    1.1099    0.0000 O   0  0  0  0  0  0  0  0  0  0  0  0
    1.3492    1.9349    0.0000 C   0  0  0  0  0  0  0  0  0  0  0  0
    0.6347    2.3474    0.0000 C   0  0  0  0  0  0  0  0  0  0  0  0
   -1.1193   -2.4047    0.0000 C   0  0  0  0  0  0  0  0  0  0  0  0
   -1.3966    1.7105    0.0000 H   0  0  0  0  0  0  0  0  0  0  0  0
   -2.4362    2.2402    0.0000 H   0  0  0  0  0  0  0  0  0  0  0  0
   -2.9659    1.2007    0.0000 H   0  0  0  0  0  0  0  0  0  0  0  0
   -2.6948    0.3709    0.0000 H   0  0  0  0  0  0  0  0  0  0  0  0
   -2.1445   -0.1247    0.0000 H   0  0  0  0  0  0  0  0  0  0  0  0
   -0.3509    0.7996    0.0000 H   0  0  0  0  0  0  0  0  0  0  0  0
   -0.9012    1.2951    0.0000 H   0  0  0  0  0  0  0  0  0  0  0  0
    0.6347    0.6974    0.0000 H   0  0  0  0  0  0  0  0  0  0  0  0
    2.7781   -1.3651    0.0000 H   0  0  0  0  0  0  0  0  0  0  0  0
    4.2071   -0.5401    0.0000 H   0  0  0  0  0  0  0  0  0  0  0  0
    4.2071    1.1099    0.0000 H   0  0  0  0  0  0  0  0  0  0  0  0
    2.7781    1.9349    0.0000 H   0  0  0  0  0  0  0  0  0  0  0  0
    2.1728    1.9829    0.0000 H   0  0  0  0  0  0  0  0  0  0  0  0
    1.8025    2.6242    0.0000 H   0  0  0  0  0  0  0  0  0  0  0  0
    1.0472    3.0619    0.0000 H   0  0  0  0  0  0  0  0  0  0  0  0
   -0.0798    2.7599    0.0000 H   0  0  0  0  0  0  0  0  0  0  0  0
    0.2222    1.6329    0.0000 H   0  0  0  0  0  0  0  0  0  0  0  0
   -1.9039   -2.1497    0.0000 H   0  0  0  0  0  0  0  0  0  0  0  0
   -1.3743   -3.1893    0.0000 H   0  0  0  0  0  0  0  0  0  0  0  0
   -0.3347   -2.6596    0.0000 H   0  0  0  0  0  0  0  0  0  0  0  0
  1  2  1  0  0  0  0
  2  3  1  0  0  0  0
  3  4  1  0  0  0  0
  5  4  4  0  0  0  0
  6  5  4  0  0  0  0
  7  6  4  0  0  0  0
  7  8  4  0  0  0  0
  8  9  1  0  0  0  0
  9 10  1  0  0  0  0
 10 11  2  0  0  0  0
 11 12  1  0  0  0  0
 12 13  2  0  0  0  0
 10 14  1  0  0  0  0
 15 14  4  0  0  0  0
 16 15  4  0  0  0  0
 17 16  4  0  0  0  0
 18 17  4  0  0  0  0
 19 18  4  0  0  0  0
 19 20  1  0  0  0  0
 20 21  1  0  0  0  0
 21 22  1  0  0  0  0
  6 23  1  0  0  0  0
  4  8  4  0  0  0  0
 12  7  1  0  0  0  0
 14 19  4  0  0  0  0
  1 24  1  0  0  0  0
  1 25  1  0  0  0  0
  1 26  1  0  0  0  0
  2 27  1  0  0  0  0
  2 28  1  0  0  0  0
  3 29  1  0  0  0  0
  3 30  1  0  0  0  0
  9 31  1  0  0  0  0
 15 32  1  0  0  0  0
 16 33  1  0  0  0  0
 17 34  1  0  0  0  0
 18 35  1  0  0  0  0
 21 36  1  0  0  0  0
 21 37  1  0  0  0  0
 22 38  1  0  0  0  0
 22 39  1  0  0  0  0
 22 40  1  0  0  0  0
 23 41  1  0  0  0  0
 23 42  1  0  0  0  0
 23 43  1  0  0  0  0
M  END
>  <id_input>
837

>  <InChIKey>
YRRWQMBIMZMVDB-UHFFFAOYSA-N

>  <substance_name>
-

>  <casrn>
224789-21-3

>  <Molecular weight>
312.3663024902344

>  <guideline>
OECD Guideline 404 (Acute Dermal Irritation / Corrosion)

>  <species>
rabbit

>  <type_of_coverage>
semiocclusive

>  <max_duration(hrs)>
4.0

>  <vehicle>
other: aqua ad iniectabilia

>  <edema/ erythema score>
0.0

>  <max_score>
4.0

>  <reversibility>
0.0

>  <Outcome>
0

>  <StandardizerResult>
Remove Explicit Hydrogens (ID: RemoveExplicitH)
Dearomatize (ID: Dearomatize)
Clear Stereo (ID: ClearStereo)
Wedge Clean (ID: WedgeClean)
Mesomerize (ID: Mesomerize)
Tautomerize (ID: Tautomerize)
Aromatize (ID: Aromatize)
Add Explicit Hydrogens (ID: AddExplicitH)
Neutralize (ID: Neutralize)
Clean 2D (ID: Clean2D)


$$$$

  Mrv1812 02121911042D          

 64 68  0  0  0  0            999 V2000
    3.1867   -5.4473    0.0000 C   0  0  0  0  0  0  0  0  0  0  0  0
    2.4723   -5.0348    0.0000 C   0  0  0  0  0  0  0  0  0  0  0  0
    2.4723   -4.2098    0.0000 C   0  0  0  0  0  0  0  0  0  0  0  0
    1.7578   -3.7973    0.0000 C   0  0  0  0  0  0  0  0  0  0  0  0
    1.7578   -2.9723    0.0000 O   0  0  0  0  0  0  0  0  0  0  0  0
    1.0433   -2.5598    0.0000 C   0  0  0  0  0  0  0  0  0  0  0  0
    0.3288   -2.9723    0.0000 O   0  0  0  0  0  0  0  0  0  0  0  0
    1.0433   -1.7348    0.0000 C   0  0  0  0  0  0  0  0  0  0  0  0
    1.7578   -1.3223    0.0000 C   0  0  0  0  0  0  0  0  0  0  0  0
    1.7578   -0.4973    0.0000 C   0  0  0  0  0  0  0  0  0  0  0  0
    1.0433   -0.0848    0.0000 C   0  0  0  0  0  0  0  0  0  0  0  0
    0.3288   -0.4973    0.0000 C   0  0  0  0  0  0  0  0  0  0  0  0
    0.3288   -1.3223    0.0000 C   0  0  0  0  0  0  0  0  0  0  0  0
   -0.3856   -1.7348    0.0000 N   0  0  0  0  0  0  0  0  0  0  0  0
   -0.3856   -2.5598    0.0000 N   0  0  0  0  0  0  0  0  0  0  0  0
   -1.1001   -2.9723    0.0000 C   0  0  0  0  0  0  0  0  0  0  0  0
   -1.1001   -3.7973    0.0000 C   0  0  0  0  0  0  0  0  0  0  0  0
   -0.3856   -4.2098    0.0000 O   0  0  0  0  0  0  0  0  0  0  0  0
   -1.8146   -4.2098    0.0000 C   0  0  0  0  0  0  0  0  0  0  0  0
   -2.5290   -3.7973    0.0000 C   0  0  0  0  0  0  0  0  0  0  0  0
   -2.5290   -2.9723    0.0000 C   0  0  0  0  0  0  0  0  0  0  0  0
   -3.2435   -2.5598    0.0000 C   0  0  0  0  0  0  0  0  0  0  0  0
   -3.2435   -1.7348    0.0000 C   0  0  0  0  0  0  0  0  0  0  0  0
   -2.5290   -1.3223    0.0000 C   0  0  0  0  0  0  0  0  0  0  0  0
   -1.8146   -1.7348    0.0000 C   0  0  0  0  0  0  0  0  0  0  0  0
   -1.8146   -2.5598    0.0000 C   0  0  0  0  0  0  0  0  0  0  0  0
   -1.8146   -5.0348    0.0000 C   0  0  0  0  0  0  0  0  0  0  0  0
   -1.1001   -5.4473    0.0000 O   0  0  0  0  0  0  0  0  0  0  0  0
   -2.5290   -5.4473    0.0000 N   0  0  0  0  0  0  0  0  0  0  0  0
   -3.2435   -5.0348    0.0000 C   0  0  0  0  0  0  0  0  0  0  0  0
   -3.2435   -4.2098    0.0000 C   0  0  0  0  0  0  0  0  0  0  0  0
   -3.9580   -3.7973    0.0000 C   0  0  0  0  0  0  0  0  0  0  0  0
   -4.6724   -4.2098    0.0000 C   0  0  0  0  0  0  0  0  0  0  0  0
   -5.4571   -3.9549    0.0000 N   0  0  0  0  0  0  0  0  0  0  0  0
   -5.9420   -4.6223    0.0000 C   0  0  0  0  0  0  0  0  0  0  0  0
   -6.7670   -4.6223    0.0000 O   0  0  0  0  0  0  0  0  0  0  0  0
   -5.4571   -5.2898    0.0000 N   0  0  0  0  0  0  0  0  0  0  0  0
   -4.6724   -5.0348    0.0000 C   0  0  0  0  0  0  0  0  0  0  0  0
   -3.9580   -5.4473    0.0000 C   0  0  0  0  0  0  0  0  0  0  0  0
    2.7742   -6.1618    0.0000 H   0  0  0  0  0  0  0  0  0  0  0  0
    3.9012   -5.8598    0.0000 H   0  0  0  0  0  0  0  0  0  0  0  0
    3.5992   -4.7329    0.0000 H   0  0  0  0  0  0  0  0  0  0  0  0
    1.6487   -5.0828    0.0000 H   0  0  0  0  0  0  0  0  0  0  0  0
    2.0189   -5.7241    0.0000 H   0  0  0  0  0  0  0  0  0  0  0  0
    3.2959   -4.1619    0.0000 H   0  0  0  0  0  0  0  0  0  0  0  0
    2.9256   -3.5205    0.0000 H   0  0  0  0  0  0  0  0  0  0  0  0
    0.9342   -3.8453    0.0000 H   0  0  0  0  0  0  0  0  0  0  0  0
    1.3044   -4.4866    0.0000 H   0  0  0  0  0  0  0  0  0  0  0  0
    2.4723   -1.7348    0.0000 H   0  0  0  0  0  0  0  0  0  0  0  0
    2.4723   -0.0848    0.0000 H   0  0  0  0  0  0  0  0  0  0  0  0
    1.0433    0.7402    0.0000 H   0  0  0  0  0  0  0  0  0  0  0  0
   -0.3856   -0.0848    0.0000 H   0  0  0  0  0  0  0  0  0  0  0  0
   -0.3856   -5.0348    0.0000 H   0  0  0  0  0  0  0  0  0  0  0  0
   -2.5290   -4.6223    0.0000 H   0  0  0  0  0  0  0  0  0  0  0  0
   -3.9580   -2.9723    0.0000 H   0  0  0  0  0  0  0  0  0  0  0  0
   -3.9580   -1.3223    0.0000 H   0  0  0  0  0  0  0  0  0  0  0  0
   -2.5290   -0.4973    0.0000 H   0  0  0  0  0  0  0  0  0  0  0  0
   -1.1001   -1.3223    0.0000 H   0  0  0  0  0  0  0  0  0  0  0  0
   -2.5290   -6.2723    0.0000 H   0  0  0  0  0  0  0  0  0  0  0  0
   -3.2435   -3.3848    0.0000 H   0  0  0  0  0  0  0  0  0  0  0  0
   -3.9580   -4.6223    0.0000 H   0  0  0  0  0  0  0  0  0  0  0  0
   -5.7120   -3.1703    0.0000 H   0  0  0  0  0  0  0  0  0  0  0  0
   -5.7120   -6.0744    0.0000 H   0  0  0  0  0  0  0  0  0  0  0  0
   -3.9580   -6.2723    0.0000 H   0  0  0  0  0  0  0  0  0  0  0  0
  1  2  1  0  0  0  0
  2  3  1  0  0  0  0
  3  4  1  0  0  0  0
  4  5  1  0  0  0  0
  5  6  1  0  0  0  0
  6  7  2  0  0  0  0
  6  8  1  0  0  0  0
  9  8  4  0  0  0  0
 10  9  4  0  0  0  0
 11 10  4  0  0  0  0
 12 11  4  0  0  0  0
 13 12  4  0  0  0  0
 14 13  1  4  0  0  0
 14 15  2  0  0  0  0
 15 16  1  0  0  0  0
 17 16  4  0  0  0  0
 17 18  1  0  0  0  0
 19 17  4  0  0  0  0
 20 19  4  0  0  0  0
 21 20  4  0  0  0  0
 21 22  4  0  0  0  0
 22 23  4  0  0  0  0
 23 24  4  0  0  0  0
 24 25  4  0  0  0  0
 25 26  4  0  0  0  0
 19 27  1  0  0  0  0
 27 28  2  0  0  0  0
 27 29  1  0  0  0  0
 29 30  1  0  0  0  0
 31 30  4  0  0  0  0
 32 31  4  0  0  0  0
 33 32  4  0  0  0  0
 33 34  1  0  0  0  0
 34 35  1  0  0  0  0
 35 36  2  0  0  0  0
 35 37  1  0  0  0  0
 37 38  1  0  0  0  0
 39 38  4  0  0  0  0
  8 13  4  0  0  0  0
 16 26  4  0  0  0  0
 26 21  4  0  0  0  0
 30 39  4  0  0  0  0
 38 33  4  0  0  0  0
  1 40  1  0  0  0  0
  1 41  1  0  0  0  0
  1 42  1  0  0  0  0
  2 43  1  0  0  0  0
  2 44  1  0  0  0  0
  3 45  1  0  0  0  0
  3 46  1  0  0  0  0
  4 47  1  0  0  0  0
  4 48  1  0  0  0  0
  9 49  1  0  0  0  0
 10 50  1  0  0  0  0
 11 51  1  0  0  0  0
 12 52  1  0  0  0  0
 18 53  1  0  0  0  0
 20 54  1  0  0  0  0
 22 55  1  0  0  0  0
 23 56  1  0  0  0  0
 24 57  1  0  0  0  0
 25 58  1  0  0  0  0
 29 59  1  0  0  0  0
 31 60  1  0  0  0  0
 32 61  1  0  0  0  0
 34 62  1  0  0  0  0
 37 63  1  0  0  0  0
 39 64  1  0  0  0  0
M  END
>  <id_input>
3956

>  <InChIKey>
OFVRAFISISJRPV-UHFFFAOYSA-N

>  <substance_name>
butyl 2-[(E)-2-{2-hydroxy-3-[(2-oxo-2,3-dihydro-1H-1,3-benzodiazol-5-yl)carbamoyl]naphthalen-1-yl}diazen-1-yl]benzoate

>  <casrn>
31778-10-6

>  <Molecular weight>
523.539306640625

>  <guideline>
OECD Guideline 404 (Acute Dermal Irritation / Corrosion)

>  <species>
rabbit

>  <type_of_coverage>
semiocclusive

>  <max_duration(hrs)>
4.0

>  <vehicle>
water

>  <edema/ erythema score>
0.0

>  <max_score>
4.0

>  <reversibility>
0.0

>  <Outcome>
0

>  <StandardizerResult>
Remove Explicit Hydrogens (ID: RemoveExplicitH)
Dearomatize (ID: Dearomatize)
Clear Stereo (ID: ClearStereo)
Wedge Clean (ID: WedgeClean)
Mesomerize (ID: Mesomerize)
Tautomerize (ID: Tautomerize)
Aromatize (ID: Aromatize)
Add Explicit Hydrogens (ID: AddExplicitH)
Neutralize (ID: Neutralize)
Clean 2D (ID: Clean2D)


$$$$

  Mrv1812 02121911042D          

 42 43  0  0  0  0            999 V2000
    1.2438    4.8985    0.0000 C   0  0  0  0  0  0  0  0  0  0  0  0
    1.2438    4.0735    0.0000 O   0  0  0  0  0  0  0  0  0  0  0  0
    0.5293    3.6610    0.0000 C   0  0  0  0  0  0  0  0  0  0  0  0
   -0.1852    4.0735    0.0000 C   0  0  0  0  0  0  0  0  0  0  0  0
   -0.8997    3.6610    0.0000 C   0  0  0  0  0  0  0  0  0  0  0  0
   -0.8997    2.8360    0.0000 C   0  0  0  0  0  0  0  0  0  0  0  0
   -0.1852    2.4235    0.0000 C   0  0  0  0  0  0  0  0  0  0  0  0
    0.5293    2.8360    0.0000 C   0  0  0  0  0  0  0  0  0  0  0  0
    1.2438    2.4235    0.0000 N   0  0  0  0  0  0  0  0  0  0  0  0
    1.9582    2.8360    0.0000 C   0  0  0  0  0  0  0  0  0  0  0  0
    1.9582    3.6610    0.0000 O   0  0  0  0  0  0  0  0  0  0  0  0
    2.6727    2.4235    0.0000 C   0  0  0  0  0  0  0  0  0  0  0  0
    2.6727    1.5985    0.0000 N   0  0  0  0  0  0  0  0  0  0  0  0
    1.9582    1.1860    0.0000 N   0  0  0  0  0  0  0  0  0  0  0  0
    1.9582    0.3610    0.0000 C   0  0  0  0  0  0  0  0  0  0  0  0
    1.2438   -0.0515    0.0000 C   0  0  0  0  0  0  0  0  0  0  0  0
    1.2438   -0.8765    0.0000 C   0  0  0  0  0  0  0  0  0  0  0  0
    1.9582   -1.2890    0.0000 C   0  0  0  0  0  0  0  0  0  0  0  0
    1.9582   -2.1140    0.0000 Cl  0  0  0  0  0  0  0  0  0  0  0  0
    2.6727   -0.8765    0.0000 C   0  0  0  0  0  0  0  0  0  0  0  0
    2.6727   -0.0515    0.0000 C   0  0  0  0  0  0  0  0  0  0  0  0
    3.3872    0.3610    0.0000 N   0  0  0  0  0  0  0  0  0  0  0  0
    3.3872    1.1860    0.0000 O   0  0  0  0  0  0  0  0  0  0  0  0
    4.1016   -0.0515    0.0000 O   0  0  0  0  0  0  0  0  0  0  0  0
    3.3872    2.8360    0.0000 C   0  0  0  0  0  0  0  0  0  0  0  0
    3.3872    3.6610    0.0000 C   0  0  0  0  0  0  0  0  0  0  0  0
    4.1016    2.4235    0.0000 O   0  0  0  0  0  0  0  0  0  0  0  0
    2.0688    4.8985    0.0000 H   0  0  0  0  0  0  0  0  0  0  0  0
    1.2438    5.7235    0.0000 H   0  0  0  0  0  0  0  0  0  0  0  0
    0.4188    4.8985    0.0000 H   0  0  0  0  0  0  0  0  0  0  0  0
   -0.1852    4.8985    0.0000 H   0  0  0  0  0  0  0  0  0  0  0  0
   -1.6141    4.0735    0.0000 H   0  0  0  0  0  0  0  0  0  0  0  0
   -1.6141    2.4235    0.0000 H   0  0  0  0  0  0  0  0  0  0  0  0
   -0.1852    1.5985    0.0000 H   0  0  0  0  0  0  0  0  0  0  0  0
    1.2438    1.5985    0.0000 H   0  0  0  0  0  0  0  0  0  0  0  0
    1.9582    2.0110    0.0000 H   0  0  0  0  0  0  0  0  0  0  0  0
    0.5293    0.3610    0.0000 H   0  0  0  0  0  0  0  0  0  0  0  0
    0.5293   -1.2890    0.0000 H   0  0  0  0  0  0  0  0  0  0  0  0
    3.3872   -1.2890    0.0000 H   0  0  0  0  0  0  0  0  0  0  0  0
    4.2122    3.6610    0.0000 H   0  0  0  0  0  0  0  0  0  0  0  0
    3.3872    4.4860    0.0000 H   0  0  0  0  0  0  0  0  0  0  0  0
    2.5622    3.6610    0.0000 H   0  0  0  0  0  0  0  0  0  0  0  0
  1  2  1  0  0  0  0
  2  3  1  0  0  0  0
  4  3  4  0  0  0  0
  5  4  4  0  0  0  0
  6  5  4  0  0  0  0
  7  6  4  0  0  0  0
  8  7  4  0  0  0  0
  8  9  1  0  0  0  0
  9 10  1  0  0  0  0
 10 11  2  0  0  0  0
 10 12  1  0  0  0  0
 12 13  2  0  0  0  0
 13 14  1  0  0  0  0
 14 15  1  0  0  0  0
 16 15  4  0  0  0  0
 17 16  4  0  0  0  0
 18 17  4  0  0  0  0
 18 19  1  0  0  0  0
 20 18  4  0  0  0  0
 21 20  4  0  0  0  0
 21 22  1  0  0  0  0
 22 23  2  0  0  0  0
 22 24  2  0  0  0  0
 12 25  1  0  0  0  0
 25 26  1  0  0  0  0
 25 27  2  0  0  0  0
  3  8  4  0  0  0  0
 15 21  4  0  0  0  0
  1 28  1  0  0  0  0
  1 29  1  0  0  0  0
  1 30  1  0  0  0  0
  4 31  1  0  0  0  0
  5 32  1  0  0  0  0
  6 33  1  0  0  0  0
  7 34  1  0  0  0  0
  9 35  1  0  0  0  0
 14 36  1  0  0  0  0
 16 37  1  0  0  0  0
 17 38  1  0  0  0  0
 20 39  1  0  0  0  0
 26 40  1  0  0  0  0
 26 41  1  0  0  0  0
 26 42  1  0  0  0  0
M  END
>  <id_input>
2340

>  <InChIKey>
VDAMTILBOXFFHU-UHFFFAOYSA-N

>  <substance_name>
2-[(E)-2-(4-chloro-2-nitrophenyl)diazen-1-yl]-N-(2-methoxyphenyl)-3-oxobutanamide

>  <casrn>
13515-40-7

>  <Molecular weight>
390.7778015136719

>  <guideline>
OECD Guideline 404 (Acute Dermal Irritation / Corrosion)

>  <species>
rabbit

>  <type_of_coverage>
semiocclusive

>  <max_duration(hrs)>
4.0

>  <vehicle>
other: polyethylene glycol 400

>  <edema/ erythema score>
0.0

>  <max_score>
4.0

>  <reversibility>
0.0

>  <Outcome>
0

>  <StandardizerResult>
Remove Explicit Hydrogens (ID: RemoveExplicitH)
Dearomatize (ID: Dearomatize)
Clear Stereo (ID: ClearStereo)
Wedge Clean (ID: WedgeClean)
Mesomerize (ID: Mesomerize)
Tautomerize (ID: Tautomerize)
Aromatize (ID: Aromatize)
Add Explicit Hydrogens (ID: AddExplicitH)
Neutralize (ID: Neutralize)
Clean 2D (ID: Clean2D)


$$$$

  Mrv1812 02121911042D          

 37 40  0  0  0  0            999 V2000
    2.1764   -1.2692    0.0000 C   0  0  0  0  0  0  0  0  0  0  0  0
    1.3698   -1.0959    0.0000 O   0  0  0  0  0  0  0  0  0  0  0  0
    1.1166   -0.3108    0.0000 C   0  0  0  0  0  0  0  0  0  0  0  0
    1.6700    0.3011    0.0000 C   0  0  0  0  0  0  0  0  0  0  0  0
    1.4168    1.0863    0.0000 C   0  0  0  0  0  0  0  0  0  0  0  0
    0.5726    1.2916    0.0000 C   0  0  0  0  0  0  0  0  0  0  0  0
    0.0568    0.6477    0.0000 C   0  0  0  0  0  0  0  0  0  0  0  0
    0.3100   -0.1375    0.0000 C   0  0  0  0  0  0  0  0  0  0  0  0
   -0.3585   -0.6209    0.0000 O   0  0  0  0  0  0  0  0  0  0  0  0
   -1.0249   -0.1345    0.0000 C   0  0  0  0  0  0  0  0  0  0  0  0
   -0.7682    0.6495    0.0000 C   0  0  0  0  0  0  0  0  0  0  0  0
   -0.5983    1.4978    0.0000 C   0  0  0  0  0  0  0  0  0  0  0  0
   -0.8232    2.3089    0.0000 C   0  0  0  0  0  0  0  0  0  0  0  0
   -0.0954    2.6866    0.0000 N   0  0  0  0  0  0  0  0  0  0  0  0
    0.5076    2.0962    0.0000 C   0  0  0  0  0  0  0  0  0  0  0  0
   -1.3189    1.2638    0.0000 C   0  0  0  0  0  0  0  0  0  0  0  0
   -2.1262    1.0941    0.0000 C   0  0  0  0  0  0  0  0  0  0  0  0
   -2.3829    0.3100    0.0000 C   0  0  0  0  0  0  0  0  0  0  0  0
   -3.1902    0.1402    0.0000 O   0  0  0  0  0  0  0  0  0  0  0  0
   -1.8322   -0.3043    0.0000 C   0  0  0  0  0  0  0  0  0  0  0  0
    1.9783    1.6907    0.0000 Br  0  0  0  0  0  0  0  0  0  0  0  0
    2.0031   -2.0758    0.0000 H   0  0  0  0  0  0  0  0  0  0  0  0
    2.9830   -1.4425    0.0000 H   0  0  0  0  0  0  0  0  0  0  0  0
    2.3497   -0.4626    0.0000 H   0  0  0  0  0  0  0  0  0  0  0  0
    2.4766    0.1278    0.0000 H   0  0  0  0  0  0  0  0  0  0  0  0
   -1.5755    0.4798    0.0000 H   0  0  0  0  0  0  0  0  0  0  0  0
    0.1724    1.2036    0.0000 H   0  0  0  0  0  0  0  0  0  0  0  0
    0.1489    1.8474    0.0000 H   0  0  0  0  0  0  0  0  0  0  0  0
   -1.3287    2.9608    0.0000 H   0  0  0  0  0  0  0  0  0  0  0  0
   -1.6449    2.2350    0.0000 H   0  0  0  0  0  0  0  0  0  0  0  0
    0.0264    3.5026    0.0000 H   0  0  0  0  0  0  0  0  0  0  0  0
    1.3325    2.1042    0.0000 H   0  0  0  0  0  0  0  0  0  0  0  0
    1.0416    2.7250    0.0000 H   0  0  0  0  0  0  0  0  0  0  0  0
   -1.5315    2.0610    0.0000 H   0  0  0  0  0  0  0  0  0  0  0  0
   -2.6769    1.7084    0.0000 H   0  0  0  0  0  0  0  0  0  0  0  0
   -2.4134   -0.8898    0.0000 H   0  0  0  0  0  0  0  0  0  0  0  0
   -1.7097   -1.1202    0.0000 H   0  0  0  0  0  0  0  0  0  0  0  0
  1  2  1  0  0  0  0
  2  3  1  0  0  0  0
  4  3  4  0  0  0  0
  5  4  4  0  0  0  0
  6  5  4  0  0  0  0
  7  6  4  0  0  0  0
  7  8  4  0  0  0  0
  8  9  1  0  0  0  0
  9 10  1  0  0  0  0
 11 10  1  0  0  0  0
 12 11  1  0  0  0  0
 13 12  1  0  0  0  0
 14 13  1  0  0  0  0
 15 14  1  0  0  0  0
 16 11  1  0  0  0  0
 17 16  2  0  0  0  0
 18 17  1  0  0  0  0
 18 19  2  0  0  0  0
 20 18  1  0  0  0  0
  5 21  1  0  0  0  0
  3  8  4  0  0  0  0
  6 15  1  0  0  0  0
 11  7  1  0  0  0  0
 10 20  1  0  0  0  0
  1 22  1  0  0  0  0
  1 23  1  0  0  0  0
  1 24  1  0  0  0  0
  4 25  1  0  0  0  0
 10 26  1  0  0  0  0
 12 27  1  0  0  0  0
 12 28  1  0  0  0  0
 13 29  1  0  0  0  0
 13 30  1  0  0  0  0
 14 31  1  0  0  0  0
 15 32  1  0  0  0  0
 15 33  1  0  0  0  0
 16 34  1  0  0  0  0
 17 35  1  0  0  0  0
 20 36  1  0  0  0  0
 20 37  1  0  0  0  0
M  END
>  <id_input>
5338

>  <InChIKey>
LHTYAAGKZQWJSU-UHFFFAOYSA-N

>  <substance_name>
unnamed [179108-06-6]

>  <casrn>
179108-06-6

>  <Molecular weight>
350.2071533203125

>  <guideline>
OECD Guideline 404 (Acute Dermal Irritation / Corrosion)

>  <species>
rabbit

>  <type_of_coverage>
semiocclusive

>  <max_duration(hrs)>
4.0

>  <vehicle>
unchanged (no vehicle)

>  <edema/ erythema score>
0.11

>  <max_score>
4.0

>  <reversibility>
0.0

>  <Outcome>
0

>  <StandardizerResult>
Remove Explicit Hydrogens (ID: RemoveExplicitH)
Dearomatize (ID: Dearomatize)
Clear Stereo (ID: ClearStereo)
Wedge Clean (ID: WedgeClean)
Mesomerize (ID: Mesomerize)
Tautomerize (ID: Tautomerize)
Aromatize (ID: Aromatize)
Add Explicit Hydrogens (ID: AddExplicitH)
Neutralize (ID: Neutralize)
Clean 2D (ID: Clean2D)


$$$$

  Mrv1812 02121911042D          

 69 71  0  0  0  0            999 V2000
    2.0245    0.5236    0.0000 C   0  0  0  0  0  0  0  0  0  0  0  0
    1.3100    0.1111    0.0000 C   0  0  0  0  0  0  0  0  0  0  0  0
    0.5956    0.5236    0.0000 C   0  0  0  0  0  0  0  0  0  0  0  0
   -0.1189    0.1111    0.0000 C   0  0  0  0  0  0  0  0  0  0  0  0
   -0.1189   -0.7139    0.0000 C   0  0  0  0  0  0  0  0  0  0  0  0
    0.5956   -1.1264    0.0000 C   0  0  0  0  0  0  0  0  0  0  0  0
    1.3100   -0.7139    0.0000 C   0  0  0  0  0  0  0  0  0  0  0  0
    2.0245   -1.1264    0.0000 N   0  0  0  0  0  0  0  0  0  0  0  0
    2.7390   -0.7139    0.0000 C   0  0  0  0  0  0  0  0  0  0  0  0
    2.7390    0.1111    0.0000 O   0  0  0  0  0  0  0  0  0  0  0  0
    3.4534   -1.1264    0.0000 C   0  0  0  0  0  0  0  0  0  0  0  0
    4.1679   -0.7139    0.0000 C   0  0  0  0  0  0  0  0  0  0  0  0
    4.8824   -1.1264    0.0000 O   0  0  0  0  0  0  0  0  0  0  0  0
    4.1679    0.1111    0.0000 C   0  0  0  0  0  0  0  0  0  0  0  0
    3.4534   -1.9514    0.0000 N   0  0  0  0  0  0  0  0  0  0  0  0
    4.1679   -2.3639    0.0000 N   0  0  0  0  0  0  0  0  0  0  0  0
    4.1679   -3.1889    0.0000 C   0  0  0  0  0  0  0  0  0  0  0  0
    3.4534   -3.6014    0.0000 C   0  0  0  0  0  0  0  0  0  0  0  0
    3.4534   -4.4264    0.0000 C   0  0  0  0  0  0  0  0  0  0  0  0
    4.1679   -4.8389    0.0000 C   0  0  0  0  0  0  0  0  0  0  0  0
    4.8824   -4.4264    0.0000 C   0  0  0  0  0  0  0  0  0  0  0  0
    4.8824   -3.6014    0.0000 C   0  0  0  0  0  0  0  0  0  0  0  0
    5.5969   -3.1889    0.0000 Cl  0  0  0  0  0  0  0  0  0  0  0  0
    2.7390   -4.8389    0.0000 C   0  0  0  0  0  0  0  0  0  0  0  0
    2.7390   -5.6639    0.0000 O   0  0  0  0  0  0  0  0  0  0  0  0
    2.0245   -4.4264    0.0000 O   0  0  0  0  0  0  0  0  0  0  0  0
   -0.8334   -1.1264    0.0000 Cl  0  0  0  0  0  0  0  0  0  0  0  0
   -0.8334    0.5236    0.0000 N   0  0  0  0  0  0  0  0  0  0  0  0
   -0.8334    1.3486    0.0000 C   0  0  0  0  0  0  0  0  0  0  0  0
   -0.1189    1.7611    0.0000 O   0  0  0  0  0  0  0  0  0  0  0  0
   -1.5479    1.7611    0.0000 C   0  0  0  0  0  0  0  0  0  0  0  0
   -1.5479    2.5861    0.0000 C   0  0  0  0  0  0  0  0  0  0  0  0
   -0.8334    2.9986    0.0000 O   0  0  0  0  0  0  0  0  0  0  0  0
   -2.2623    2.9986    0.0000 C   0  0  0  0  0  0  0  0  0  0  0  0
   -2.2623    1.3486    0.0000 N   0  0  0  0  0  0  0  0  0  0  0  0
   -2.9768    1.7611    0.0000 N   0  0  0  0  0  0  0  0  0  0  0  0
   -3.6913    1.3486    0.0000 C   0  0  0  0  0  0  0  0  0  0  0  0
   -4.4057    1.7611    0.0000 C   0  0  0  0  0  0  0  0  0  0  0  0
   -5.1202    1.3486    0.0000 C   0  0  0  0  0  0  0  0  0  0  0  0
   -5.1202    0.5236    0.0000 C   0  0  0  0  0  0  0  0  0  0  0  0
   -4.4057    0.1111    0.0000 C   0  0  0  0  0  0  0  0  0  0  0  0
   -3.6913    0.5236    0.0000 C   0  0  0  0  0  0  0  0  0  0  0  0
   -2.9768    0.1111    0.0000 Cl  0  0  0  0  0  0  0  0  0  0  0  0
   -5.8347    1.7611    0.0000 C   0  0  0  0  0  0  0  0  0  0  0  0
   -6.5492    1.3486    0.0000 O   0  0  0  0  0  0  0  0  0  0  0  0
   -5.8347    2.5861    0.0000 O   0  0  0  0  0  0  0  0  0  0  0  0
    2.7390    0.9361    0.0000 H   0  0  0  0  0  0  0  0  0  0  0  0
    2.0245    1.3486    0.0000 H   0  0  0  0  0  0  0  0  0  0  0  0
    1.3100    0.9361    0.0000 H   0  0  0  0  0  0  0  0  0  0  0  0
    0.1831    1.2381    0.0000 H   0  0  0  0  0  0  0  0  0  0  0  0
    0.5956   -1.9514    0.0000 H   0  0  0  0  0  0  0  0  0  0  0  0
    2.0245   -1.9514    0.0000 H   0  0  0  0  0  0  0  0  0  0  0  0
    4.9929    0.1111    0.0000 H   0  0  0  0  0  0  0  0  0  0  0  0
    4.1679    0.9361    0.0000 H   0  0  0  0  0  0  0  0  0  0  0  0
    3.3429    0.1111    0.0000 H   0  0  0  0  0  0  0  0  0  0  0  0
    4.8824   -1.9514    0.0000 H   0  0  0  0  0  0  0  0  0  0  0  0
    2.7390   -3.1889    0.0000 H   0  0  0  0  0  0  0  0  0  0  0  0
    4.1679   -5.6639    0.0000 H   0  0  0  0  0  0  0  0  0  0  0  0
    5.5969   -4.8389    0.0000 H   0  0  0  0  0  0  0  0  0  0  0  0
    2.0245   -3.6014    0.0000 H   0  0  0  0  0  0  0  0  0  0  0  0
   -1.5479    0.1111    0.0000 H   0  0  0  0  0  0  0  0  0  0  0  0
   -1.8498    3.7131    0.0000 H   0  0  0  0  0  0  0  0  0  0  0  0
   -2.9768    3.4111    0.0000 H   0  0  0  0  0  0  0  0  0  0  0  0
   -2.6748    2.2842    0.0000 H   0  0  0  0  0  0  0  0  0  0  0  0
   -3.5602    2.3445    0.0000 H   0  0  0  0  0  0  0  0  0  0  0  0
   -4.4057    2.5861    0.0000 H   0  0  0  0  0  0  0  0  0  0  0  0
   -5.8347    0.1111    0.0000 H   0  0  0  0  0  0  0  0  0  0  0  0
   -4.4057   -0.7139    0.0000 H   0  0  0  0  0  0  0  0  0  0  0  0
   -5.1202    2.9986    0.0000 H   0  0  0  0  0  0  0  0  0  0  0  0
  1  2  1  0  0  0  0
  3  2  4  0  0  0  0
  4  3  4  0  0  0  0
  5  4  4  0  0  0  0
  6  5  4  0  0  0  0
  7  6  4  0  0  0  0
  7  8  1  0  0  0  0
  8  9  1  0  0  0  0
  9 10  2  0  0  0  0
  9 11  1  0  0  0  0
 11 12  1  0  0  0  0
 12 13  2  0  0  0  0
 12 14  1  0  0  0  0
 11 15  2  0  0  0  0
 15 16  1  0  0  0  0
 16 17  1  0  0  0  0
 18 17  4  0  0  0  0
 19 18  4  0  0  0  0
 20 19  4  0  0  0  0
 21 20  4  0  0  0  0
 22 21  4  0  0  0  0
 22 23  1  0  0  0  0
 19 24  1  0  0  0  0
 24 25  2  0  0  0  0
 24 26  1  0  0  0  0
  5 27  1  0  0  0  0
  4 28  1  0  0  0  0
 28 29  1  0  0  0  0
 29 30  2  0  0  0  0
 29 31  1  0  0  0  0
 31 32  1  0  0  0  0
 32 33  2  0  0  0  0
 32 34  1  0  0  0  0
 31 35  2  0  0  0  0
 35 36  1  0  0  0  0
 36 37  1  0  0  0  0
 38 37  4  0  0  0  0
 39 38  4  0  0  0  0
 40 39  4  0  0  0  0
 41 40  4  0  0  0  0
 42 41  4  0  0  0  0
 42 43  1  0  0  0  0
 39 44  1  0  0  0  0
 44 45  2  0  0  0  0
 44 46  1  0  0  0  0
  2  7  4  0  0  0  0
 17 22  4  0  0  0  0
 37 42  4  0  0  0  0
  1 47  1  0  0  0  0
  1 48  1  0  0  0  0
  1 49  1  0  0  0  0
  3 50  1  0  0  0  0
  6 51  1  0  0  0  0
  8 52  1  0  0  0  0
 14 53  1  0  0  0  0
 14 54  1  0  0  0  0
 14 55  1  0  0  0  0
 16 56  1  0  0  0  0
 18 57  1  0  0  0  0
 20 58  1  0  0  0  0
 21 59  1  0  0  0  0
 26 60  1  0  0  0  0
 28 61  1  0  0  0  0
 34 62  1  0  0  0  0
 34 63  1  0  0  0  0
 34 64  1  0  0  0  0
 36 65  1  0  0  0  0
 38 66  1  0  0  0  0
 40 67  1  0  0  0  0
 41 68  1  0  0  0  0
 46 69  1  0  0  0  0
M  END
>  <id_input>
5421

>  <InChIKey>
RCJAQWCCDVQYMR-UHFFFAOYSA-N

>  <substance_name>
unnamed [60728-43-0]

>  <casrn>
60728-43-0

>  <Molecular weight>
689.8873291015625

>  <guideline>
OECD Guideline 404 (Acute Dermal Irritation / Corrosion)

>  <species>
rabbit

>  <type_of_coverage>
semiocclusive

>  <max_duration(hrs)>
4.0

>  <vehicle>
unchanged (no vehicle)

>  <edema/ erythema score>
0.333333333333333

>  <max_score>
4.0

>  <reversibility>
0.0

>  <Outcome>
0

>  <StandardizerResult>
Remove Explicit Hydrogens (ID: RemoveExplicitH)
Dearomatize (ID: Dearomatize)
Clear Stereo (ID: ClearStereo)
Wedge Clean (ID: WedgeClean)
Mesomerize (ID: Mesomerize)
Tautomerize (ID: Tautomerize)
Aromatize (ID: Aromatize)
Add Explicit Hydrogens (ID: AddExplicitH)
Neutralize (ID: Neutralize)
Clean 2D (ID: Clean2D)


$$$$

  Mrv1812 02121911042D          

 41 42  0  0  0  0            999 V2000
    3.2033   -1.9090    0.0000 C   0  0  0  0  0  0  0  0  0  0  0  0
    2.4888   -2.3215    0.0000 C   0  0  0  0  0  0  0  0  0  0  0  0
    2.4888   -3.1465    0.0000 O   0  0  0  0  0  0  0  0  0  0  0  0
    1.7744   -1.9090    0.0000 C   0  0  0  0  0  0  0  0  0  0  0  0
    1.0599   -2.3215    0.0000 N   0  0  0  0  0  0  0  0  0  0  0  0
    1.0599   -3.1465    0.0000 N   0  0  0  0  0  0  0  0  0  0  0  0
    0.3454   -3.5590    0.0000 C   0  0  0  0  0  0  0  0  0  0  0  0
   -0.3690   -3.1465    0.0000 C   0  0  0  0  0  0  0  0  0  0  0  0
   -1.0835   -3.5590    0.0000 C   0  0  0  0  0  0  0  0  0  0  0  0
   -1.0835   -4.3840    0.0000 C   0  0  0  0  0  0  0  0  0  0  0  0
   -1.7980   -4.7965    0.0000 C   0  0  0  0  0  0  0  0  0  0  0  0
   -0.3690   -4.7965    0.0000 C   0  0  0  0  0  0  0  0  0  0  0  0
    0.3454   -4.3840    0.0000 C   0  0  0  0  0  0  0  0  0  0  0  0
    1.0599   -4.7965    0.0000 N   0  0  0  0  0  0  0  0  0  0  0  0
    1.7744   -4.3840    0.0000 O   0  0  0  0  0  0  0  0  0  0  0  0
    1.0599   -5.6215    0.0000 O   0  0  0  0  0  0  0  0  0  0  0  0
    1.7744   -1.0840    0.0000 C   0  0  0  0  0  0  0  0  0  0  0  0
    1.0599   -0.6715    0.0000 O   0  0  0  0  0  0  0  0  0  0  0  0
    2.4888   -0.6715    0.0000 N   0  0  0  0  0  0  0  0  0  0  0  0
    2.4888    0.1535    0.0000 C   0  0  0  0  0  0  0  0  0  0  0  0
    3.2033    0.5660    0.0000 C   0  0  0  0  0  0  0  0  0  0  0  0
    3.2033    1.3910    0.0000 C   0  0  0  0  0  0  0  0  0  0  0  0
    2.4888    1.8035    0.0000 C   0  0  0  0  0  0  0  0  0  0  0  0
    1.7744    1.3910    0.0000 C   0  0  0  0  0  0  0  0  0  0  0  0
    1.7744    0.5660    0.0000 C   0  0  0  0  0  0  0  0  0  0  0  0
    3.6158   -2.6234    0.0000 H   0  0  0  0  0  0  0  0  0  0  0  0
    3.9178   -1.4965    0.0000 H   0  0  0  0  0  0  0  0  0  0  0  0
    2.7908   -1.1945    0.0000 H   0  0  0  0  0  0  0  0  0  0  0  0
    1.7744   -3.5590    0.0000 H   0  0  0  0  0  0  0  0  0  0  0  0
   -0.3690   -2.3215    0.0000 H   0  0  0  0  0  0  0  0  0  0  0  0
   -1.7980   -3.1465    0.0000 H   0  0  0  0  0  0  0  0  0  0  0  0
   -2.2105   -4.0820    0.0000 H   0  0  0  0  0  0  0  0  0  0  0  0
   -2.5124   -5.2090    0.0000 H   0  0  0  0  0  0  0  0  0  0  0  0
   -1.3855   -5.5109    0.0000 H   0  0  0  0  0  0  0  0  0  0  0  0
   -0.3690   -5.6215    0.0000 H   0  0  0  0  0  0  0  0  0  0  0  0
    3.2857   -0.4579    0.0000 H   0  0  0  0  0  0  0  0  0  0  0  0
    3.9178    0.1535    0.0000 H   0  0  0  0  0  0  0  0  0  0  0  0
    3.9178    1.8035    0.0000 H   0  0  0  0  0  0  0  0  0  0  0  0
    2.4888    2.6285    0.0000 H   0  0  0  0  0  0  0  0  0  0  0  0
    1.0599    1.8035    0.0000 H   0  0  0  0  0  0  0  0  0  0  0  0
    1.0599    0.1535    0.0000 H   0  0  0  0  0  0  0  0  0  0  0  0
  1  2  1  0  0  0  0
  2  3  2  0  0  0  0
  2  4  1  0  0  0  0
  4  5  2  0  0  0  0
  5  6  1  0  0  0  0
  6  7  1  0  0  0  0
  8  7  4  0  0  0  0
  9  8  4  0  0  0  0
 10  9  4  0  0  0  0
 10 11  1  0  0  0  0
 12 10  4  0  0  0  0
 13 12  4  0  0  0  0
 13 14  1  0  0  0  0
 14 15  2  0  0  0  0
 14 16  2  0  0  0  0
  4 17  1  0  0  0  0
 17 18  2  0  0  0  0
 17 19  1  0  0  0  0
 19 20  1  0  0  0  0
 21 20  4  0  0  0  0
 22 21  4  0  0  0  0
 23 22  4  0  0  0  0
 24 23  4  0  0  0  0
 25 24  4  0  0  0  0
  7 13  4  0  0  0  0
 20 25  4  0  0  0  0
  1 26  1  0  0  0  0
  1 27  1  0  0  0  0
  1 28  1  0  0  0  0
  6 29  1  0  0  0  0
  8 30  1  0  0  0  0
  9 31  1  0  0  0  0
 11 32  1  0  0  0  0
 11 33  1  0  0  0  0
 11 34  1  0  0  0  0
 12 35  1  0  0  0  0
 19 36  1  0  0  0  0
 21 37  1  0  0  0  0
 22 38  1  0  0  0  0
 23 39  1  0  0  0  0
 24 40  1  0  0  0  0
 25 41  1  0  0  0  0
M  END
>  <id_input>
2341

>  <InChIKey>
HNGMNLLISLJGIA-UHFFFAOYSA-N

>  <substance_name>
2-[(E)-2-(4-methyl-2-nitrophenyl)diazen-1-yl]-3-oxo-N-phenylbutanamide

>  <casrn>
2512-29-0

>  <Molecular weight>
340.3333435058594

>  <guideline>
OECD Guideline 404 (Acute Dermal Irritation / Corrosion)

>  <species>
rabbit

>  <type_of_coverage>
semiocclusive

>  <max_duration(hrs)>
4.0

>  <vehicle>
other: polyethylenglycol 400

>  <edema/ erythema score>
0.0

>  <max_score>
4.0

>  <reversibility>
0.0

>  <Outcome>
0

>  <StandardizerResult>
Remove Explicit Hydrogens (ID: RemoveExplicitH)
Dearomatize (ID: Dearomatize)
Clear Stereo (ID: ClearStereo)
Wedge Clean (ID: WedgeClean)
Mesomerize (ID: Mesomerize)
Tautomerize (ID: Tautomerize)
Aromatize (ID: Aromatize)
Add Explicit Hydrogens (ID: AddExplicitH)
Neutralize (ID: Neutralize)
Clean 2D (ID: Clean2D)


$$$$

  Mrv1812 02121911042D          

 35 37  0  0  0  0            999 V2000
   -1.5207   -0.4932    0.0000 O   0  0  0  0  0  0  0  0  0  0  0  0
   -0.8063   -0.9057    0.0000 C   0  0  0  0  0  0  0  0  0  0  0  0
   -0.0918   -0.4932    0.0000 C   0  0  0  0  0  0  0  0  0  0  0  0
    0.6227   -0.9057    0.0000 C   0  0  0  0  0  0  0  0  0  0  0  0
    1.3372   -0.4932    0.0000 C   0  0  0  0  0  0  0  0  0  0  0  0
    2.0516   -0.9057    0.0000 C   0  0  0  0  0  0  0  0  0  0  0  0
    2.0516   -1.7307    0.0000 C   0  0  0  0  0  0  0  0  0  0  0  0
    1.3372   -2.1432    0.0000 C   0  0  0  0  0  0  0  0  0  0  0  0
    0.6227   -1.7307    0.0000 C   0  0  0  0  0  0  0  0  0  0  0  0
   -0.0918   -2.1432    0.0000 C   0  0  0  0  0  0  0  0  0  0  0  0
   -0.8063   -1.7307    0.0000 C   0  0  0  0  0  0  0  0  0  0  0  0
   -1.5207   -2.1432    0.0000 C   0  0  0  0  0  0  0  0  0  0  0  0
   -2.2352   -1.7307    0.0000 O   0  0  0  0  0  0  0  0  0  0  0  0
   -1.5207   -2.9682    0.0000 N   0  0  0  0  0  0  0  0  0  0  0  0
   -2.2352   -3.3807    0.0000 C   0  0  0  0  0  0  0  0  0  0  0  0
   -2.9497   -2.9682    0.0000 C   0  0  0  0  0  0  0  0  0  0  0  0
   -3.6641   -3.3807    0.0000 C   0  0  0  0  0  0  0  0  0  0  0  0
   -3.6641   -4.2057    0.0000 C   0  0  0  0  0  0  0  0  0  0  0  0
   -2.9497   -4.6182    0.0000 C   0  0  0  0  0  0  0  0  0  0  0  0
   -2.2352   -4.2057    0.0000 C   0  0  0  0  0  0  0  0  0  0  0  0
   -2.9497   -5.4432    0.0000 N   0  0  0  0  0  0  0  0  0  0  0  0
   -2.2352   -5.8557    0.0000 O   0  0  0  0  0  0  0  0  0  0  0  0
   -3.6641   -5.8557    0.0000 O   0  0  0  0  0  0  0  0  0  0  0  0
   -1.5207    0.3318    0.0000 H   0  0  0  0  0  0  0  0  0  0  0  0
   -0.0918    0.3318    0.0000 H   0  0  0  0  0  0  0  0  0  0  0  0
    1.3372    0.3318    0.0000 H   0  0  0  0  0  0  0  0  0  0  0  0
    2.7661   -0.4932    0.0000 H   0  0  0  0  0  0  0  0  0  0  0  0
    2.7661   -2.1432    0.0000 H   0  0  0  0  0  0  0  0  0  0  0  0
    1.3372   -2.9682    0.0000 H   0  0  0  0  0  0  0  0  0  0  0  0
   -0.0918   -2.9682    0.0000 H   0  0  0  0  0  0  0  0  0  0  0  0
   -0.8063   -3.3807    0.0000 H   0  0  0  0  0  0  0  0  0  0  0  0
   -2.9497   -2.1432    0.0000 H   0  0  0  0  0  0  0  0  0  0  0  0
   -4.3786   -2.9682    0.0000 H   0  0  0  0  0  0  0  0  0  0  0  0
   -4.3786   -4.6182    0.0000 H   0  0  0  0  0  0  0  0  0  0  0  0
   -1.5207   -4.6182    0.0000 H   0  0  0  0  0  0  0  0  0  0  0  0
  1  2  1  0  0  0  0
  3  2  4  0  0  0  0
  4  3  4  0  0  0  0
  4  5  4  0  0  0  0
  5  6  4  0  0  0  0
  6  7  4  0  0  0  0
  7  8  4  0  0  0  0
  8  9  4  0  0  0  0
 10  9  4  0  0  0  0
 11 10  4  0  0  0  0
 11 12  1  0  0  0  0
 12 13  2  0  0  0  0
 12 14  1  0  0  0  0
 14 15  1  0  0  0  0
 16 15  4  0  0  0  0
 17 16  4  0  0  0  0
 18 17  4  0  0  0  0
 19 18  4  0  0  0  0
 20 19  4  0  0  0  0
 19 21  1  0  0  0  0
 21 22  2  0  0  0  0
 21 23  2  0  0  0  0
  2 11  4  0  0  0  0
  9  4  4  0  0  0  0
 15 20  4  0  0  0  0
  1 24  1  0  0  0  0
  3 25  1  0  0  0  0
  5 26  1  0  0  0  0
  6 27  1  0  0  0  0
  7 28  1  0  0  0  0
  8 29  1  0  0  0  0
 10 30  1  0  0  0  0
 14 31  1  0  0  0  0
 16 32  1  0  0  0  0
 17 33  1  0  0  0  0
 18 34  1  0  0  0  0
 20 35  1  0  0  0  0
M  END
>  <id_input>
2750

>  <InChIKey>
YZJSKRBKHCLMQC-UHFFFAOYSA-N

>  <substance_name>
3-hydroxy-N-(3-nitrophenyl)-2-naphthamide

>  <casrn>
135-65-9

>  <Molecular weight>
308.2881774902344

>  <guideline>
OECD Guideline 404 (Acute Dermal Irritation / Corrosion)

>  <species>
rabbit

>  <type_of_coverage>
semiocclusive

>  <max_duration(hrs)>
4.0

>  <vehicle>
physiological saline

>  <edema/ erythema score>
0.0

>  <max_score>
4.0

>  <reversibility>
0.0

>  <Outcome>
0

>  <StandardizerResult>
Remove Explicit Hydrogens (ID: RemoveExplicitH)
Dearomatize (ID: Dearomatize)
Clear Stereo (ID: ClearStereo)
Wedge Clean (ID: WedgeClean)
Mesomerize (ID: Mesomerize)
Tautomerize (ID: Tautomerize)
Aromatize (ID: Aromatize)
Add Explicit Hydrogens (ID: AddExplicitH)
Neutralize (ID: Neutralize)
Clean 2D (ID: Clean2D)


$$$$

  Mrv1812 02121911042D          

 43 44  0  0  0  0            999 V2000
   -0.0808    2.8514    0.0000 C   0  0  0  0  0  0  0  0  0  0  0  0
   -0.7952    3.2639    0.0000 O   0  0  0  0  0  0  0  0  0  0  0  0
   -1.5097    2.8514    0.0000 C   0  0  0  0  0  0  0  0  0  0  0  0
   -2.2242    3.2639    0.0000 C   0  0  0  0  0  0  0  0  0  0  0  0
   -2.2242    4.0889    0.0000 C   0  0  0  0  0  0  0  0  0  0  0  0
   -2.9387    2.8514    0.0000 C   0  0  0  0  0  0  0  0  0  0  0  0
   -3.7233    3.1063    0.0000 C   0  0  0  0  0  0  0  0  0  0  0  0
   -4.2082    2.4389    0.0000 O   0  0  0  0  0  0  0  0  0  0  0  0
   -3.7233    1.7714    0.0000 C   0  0  0  0  0  0  0  0  0  0  0  0
   -3.9782    0.9868    0.0000 O   0  0  0  0  0  0  0  0  0  0  0  0
   -2.9387    2.0264    0.0000 C   0  0  0  0  0  0  0  0  0  0  0  0
   -2.2242    1.6139    0.0000 C   0  0  0  0  0  0  0  0  0  0  0  0
   -2.2242    0.7889    0.0000 O   0  0  0  0  0  0  0  0  0  0  0  0
   -1.5097    2.0264    0.0000 C   0  0  0  0  0  0  0  0  0  0  0  0
   -0.7952    1.6139    0.0000 C   0  0  0  0  0  0  0  0  0  0  0  0
   -0.0808    2.0264    0.0000 C   0  0  0  0  0  0  0  0  0  0  0  0
    0.6337    1.6139    0.0000 C   0  0  0  0  0  0  0  0  0  0  0  0
    0.6337    0.7889    0.0000 C   0  0  0  0  0  0  0  0  0  0  0  0
    1.3482    2.0264    0.0000 C   0  0  0  0  0  0  0  0  0  0  0  0
    1.3482    2.8514    0.0000 C   0  0  0  0  0  0  0  0  0  0  0  0
    2.0626    3.2639    0.0000 C   0  0  0  0  0  0  0  0  0  0  0  0
    2.0626    4.0889    0.0000 O   0  0  0  0  0  0  0  0  0  0  0  0
    2.7771    2.8514    0.0000 O   0  0  0  0  0  0  0  0  0  0  0  0
    0.6337    2.4389    0.0000 H   0  0  0  0  0  0  0  0  0  0  0  0
    0.6337    3.2639    0.0000 H   0  0  0  0  0  0  0  0  0  0  0  0
   -0.0808    3.6764    0.0000 H   0  0  0  0  0  0  0  0  0  0  0  0
   -1.3992    4.0889    0.0000 H   0  0  0  0  0  0  0  0  0  0  0  0
   -2.2242    4.9139    0.0000 H   0  0  0  0  0  0  0  0  0  0  0  0
   -3.0492    4.0889    0.0000 H   0  0  0  0  0  0  0  0  0  0  0  0
   -3.5800    3.9188    0.0000 H   0  0  0  0  0  0  0  0  0  0  0  0
   -4.3167    3.6794    0.0000 H   0  0  0  0  0  0  0  0  0  0  0  0
   -2.9387    0.3764    0.0000 H   0  0  0  0  0  0  0  0  0  0  0  0
   -1.1655    0.8766    0.0000 H   0  0  0  0  0  0  0  0  0  0  0  0
   -0.4250    0.8766    0.0000 H   0  0  0  0  0  0  0  0  0  0  0  0
   -0.7952    2.4389    0.0000 H   0  0  0  0  0  0  0  0  0  0  0  0
   -0.1913    0.7889    0.0000 H   0  0  0  0  0  0  0  0  0  0  0  0
    0.6337   -0.0361    0.0000 H   0  0  0  0  0  0  0  0  0  0  0  0
    1.4587    0.7889    0.0000 H   0  0  0  0  0  0  0  0  0  0  0  0
    1.8015    1.3371    0.0000 H   0  0  0  0  0  0  0  0  0  0  0  0
    2.1718    1.9784    0.0000 H   0  0  0  0  0  0  0  0  0  0  0  0
    1.3482    3.6764    0.0000 H   0  0  0  0  0  0  0  0  0  0  0  0
    2.0626    2.4389    0.0000 H   0  0  0  0  0  0  0  0  0  0  0  0
    2.4751    4.8033    0.0000 H   0  0  0  0  0  0  0  0  0  0  0  0
  1  2  1  0  0  0  0
  2  3  1  0  0  0  0
  4  3  4  0  0  0  0
  4  5  1  0  0  0  0
  6  4  4  0  0  0  0
  6  7  1  0  0  0  0
  7  8  1  0  0  0  0
  8  9  1  0  0  0  0
  9 10  2  0  0  0  0
  9 11  1  0  0  0  0
 12 11  4  0  0  0  0
 12 13  1  0  0  0  0
 14 12  4  0  0  0  0
 14 15  1  0  0  0  0
 16 15  1  4  0  0  0
 16 17  2  0  0  0  0
 17 18  1  0  0  0  0
 17 19  1  0  0  0  0
 19 20  1  0  0  0  0
 20 21  1  0  0  0  0
 21 22  1  0  0  0  0
 21 23  2  0  0  0  0
  3 14  4  0  0  0  0
 11  6  4  0  0  0  0
  1 24  1  0  0  0  0
  1 25  1  0  0  0  0
  1 26  1  0  0  0  0
  5 27  1  0  0  0  0
  5 28  1  0  0  0  0
  5 29  1  0  0  0  0
  7 30  1  0  0  0  0
  7 31  1  0  0  0  0
 13 32  1  0  0  0  0
 15 33  1  0  0  0  0
 15 34  1  0  0  0  0
 16 35  1  0  0  0  0
 18 36  1  0  0  0  0
 18 37  1  0  0  0  0
 18 38  1  0  0  0  0
 19 39  1  0  0  0  0
 19 40  1  0  0  0  0
 20 41  1  0  0  0  0
 20 42  1  0  0  0  0
 22 43  1  0  0  0  0
M  END
>  <id_input>
124

>  <InChIKey>
HPNSFSBZBAHARI-UHFFFAOYSA-N

>  <substance_name>
(4E)-6-(4-hydroxy-6-methoxy-7-methyl-3-oxo-1,3-dihydro-2-benzofuran-5-yl)-4-methylhex-4-enoic acid

>  <casrn>
24280-93-1

>  <Molecular weight>
320.33709716796875

>  <guideline>
EU Method B.4 (Acute Toxicity: Dermal Irritation / Corrosion)

>  <species>
rabbit

>  <type_of_coverage>
semiocclusive

>  <max_duration(hrs)>
4.0

>  <vehicle>
water

>  <edema/ erythema score>
0.0

>  <max_score>
4.0

>  <reversibility>
0.0

>  <Outcome>
0

>  <StandardizerResult>
Remove Explicit Hydrogens (ID: RemoveExplicitH)
Dearomatize (ID: Dearomatize)
Clear Stereo (ID: ClearStereo)
Wedge Clean (ID: WedgeClean)
Mesomerize (ID: Mesomerize)
Tautomerize (ID: Tautomerize)
Aromatize (ID: Aromatize)
Add Explicit Hydrogens (ID: AddExplicitH)
Neutralize (ID: Neutralize)
Clean 2D (ID: Clean2D)


$$$$

  Mrv1812 02121911042D          

 90 96  0  0  0  0            999 V2000
   -1.1501    0.2739    0.0000 C   0  0  0  0  0  0  0  0  0  0  0  0
   -1.8646    0.6864    0.0000 C   0  0  0  0  0  0  0  0  0  0  0  0
   -1.8646    1.5114    0.0000 C   0  0  0  0  0  0  0  0  0  0  0  0
   -2.5791    1.9239    0.0000 C   0  0  0  0  0  0  0  0  0  0  0  0
   -3.2936    1.5114    0.0000 C   0  0  0  0  0  0  0  0  0  0  0  0
   -4.0080    1.9239    0.0000 Cl  0  0  0  0  0  0  0  0  0  0  0  0
   -3.2936    0.6864    0.0000 C   0  0  0  0  0  0  0  0  0  0  0  0
   -2.5791    0.2739    0.0000 C   0  0  0  0  0  0  0  0  0  0  0  0
   -2.5791   -0.5511    0.0000 N   0  0  0  0  0  0  0  0  0  0  0  0
   -1.8646   -0.9636    0.0000 N   0  0  0  0  0  0  0  0  0  0  0  0
   -1.8646   -1.7886    0.0000 C   0  0  0  0  0  0  0  0  0  0  0  0
   -1.1501   -2.2011    0.0000 C   0  0  0  0  0  0  0  0  0  0  0  0
   -0.4357   -1.7886    0.0000 O   0  0  0  0  0  0  0  0  0  0  0  0
   -1.1501   -3.0261    0.0000 C   0  0  0  0  0  0  0  0  0  0  0  0
   -1.8646   -3.4386    0.0000 C   0  0  0  0  0  0  0  0  0  0  0  0
   -2.5791   -3.0261    0.0000 C   0  0  0  0  0  0  0  0  0  0  0  0
   -3.2936   -3.4386    0.0000 C   0  0  0  0  0  0  0  0  0  0  0  0
   -4.0080   -3.0261    0.0000 C   0  0  0  0  0  0  0  0  0  0  0  0
   -4.0080   -2.2011    0.0000 C   0  0  0  0  0  0  0  0  0  0  0  0
   -3.2936   -1.7886    0.0000 C   0  0  0  0  0  0  0  0  0  0  0  0
   -2.5791   -2.2011    0.0000 C   0  0  0  0  0  0  0  0  0  0  0  0
   -0.4357   -3.4386    0.0000 C   0  0  0  0  0  0  0  0  0  0  0  0
    0.2788   -3.0261    0.0000 O   0  0  0  0  0  0  0  0  0  0  0  0
   -0.4357   -4.2636    0.0000 N   0  0  0  0  0  0  0  0  0  0  0  0
    0.2788   -4.6761    0.0000 C   0  0  0  0  0  0  0  0  0  0  0  0
    0.2788   -5.5011    0.0000 C   0  0  0  0  0  0  0  0  0  0  0  0
    0.9933   -5.9136    0.0000 C   0  0  0  0  0  0  0  0  0  0  0  0
    0.9933   -6.7386    0.0000 C   0  0  0  0  0  0  0  0  0  0  0  0
    1.7077   -5.5011    0.0000 C   0  0  0  0  0  0  0  0  0  0  0  0
    2.4222   -5.9136    0.0000 N   0  0  0  0  0  0  0  0  0  0  0  0
    2.4222   -6.7386    0.0000 C   0  0  0  0  0  0  0  0  0  0  0  0
    1.7077   -7.1511    0.0000 O   0  0  0  0  0  0  0  0  0  0  0  0
    3.1367   -7.1511    0.0000 C   0  0  0  0  0  0  0  0  0  0  0  0
    3.8512   -6.7386    0.0000 C   0  0  0  0  0  0  0  0  0  0  0  0
    4.5656   -7.1511    0.0000 C   0  0  0  0  0  0  0  0  0  0  0  0
    5.2801   -6.7386    0.0000 C   0  0  0  0  0  0  0  0  0  0  0  0
    5.9946   -7.1511    0.0000 C   0  0  0  0  0  0  0  0  0  0  0  0
    5.9946   -7.9761    0.0000 C   0  0  0  0  0  0  0  0  0  0  0  0
    5.2801   -8.3886    0.0000 C   0  0  0  0  0  0  0  0  0  0  0  0
    4.5656   -7.9761    0.0000 C   0  0  0  0  0  0  0  0  0  0  0  0
    3.8512   -8.3886    0.0000 C   0  0  0  0  0  0  0  0  0  0  0  0
    3.8512   -9.2136    0.0000 N   0  0  0  0  0  0  0  0  0  0  0  0
    3.1367   -9.6261    0.0000 N   0  0  0  0  0  0  0  0  0  0  0  0
    3.1367  -10.4511    0.0000 C   0  0  0  0  0  0  0  0  0  0  0  0
    2.4222  -10.8636    0.0000 C   0  0  0  0  0  0  0  0  0  0  0  0
    2.4222  -11.6886    0.0000 C   0  0  0  0  0  0  0  0  0  0  0  0
    1.7077  -12.1011    0.0000 Cl  0  0  0  0  0  0  0  0  0  0  0  0
    3.1367  -12.1011    0.0000 C   0  0  0  0  0  0  0  0  0  0  0  0
    3.8512  -11.6886    0.0000 C   0  0  0  0  0  0  0  0  0  0  0  0
    3.8512  -10.8636    0.0000 C   0  0  0  0  0  0  0  0  0  0  0  0
    4.5656  -10.4511    0.0000 C   0  0  0  0  0  0  0  0  0  0  0  0
    3.1367   -7.9761    0.0000 C   0  0  0  0  0  0  0  0  0  0  0  0
    2.4222   -8.3886    0.0000 O   0  0  0  0  0  0  0  0  0  0  0  0
    1.7077   -4.6761    0.0000 C   0  0  0  0  0  0  0  0  0  0  0  0
    0.9933   -4.2636    0.0000 C   0  0  0  0  0  0  0  0  0  0  0  0
    0.9933   -3.4386    0.0000 C   0  0  0  0  0  0  0  0  0  0  0  0
   -1.5626   -0.4406    0.0000 H   0  0  0  0  0  0  0  0  0  0  0  0
   -0.4357   -0.1386    0.0000 H   0  0  0  0  0  0  0  0  0  0  0  0
   -0.7376    0.9884    0.0000 H   0  0  0  0  0  0  0  0  0  0  0  0
   -1.1501    1.9239    0.0000 H   0  0  0  0  0  0  0  0  0  0  0  0
   -2.5791    2.7489    0.0000 H   0  0  0  0  0  0  0  0  0  0  0  0
   -4.0080    0.2739    0.0000 H   0  0  0  0  0  0  0  0  0  0  0  0
    0.2788   -2.2011    0.0000 H   0  0  0  0  0  0  0  0  0  0  0  0
   -1.8646   -4.2636    0.0000 H   0  0  0  0  0  0  0  0  0  0  0  0
   -3.2936   -4.2636    0.0000 H   0  0  0  0  0  0  0  0  0  0  0  0
   -4.7225   -3.4386    0.0000 H   0  0  0  0  0  0  0  0  0  0  0  0
   -4.7225   -1.7886    0.0000 H   0  0  0  0  0  0  0  0  0  0  0  0
   -3.2936   -0.9636    0.0000 H   0  0  0  0  0  0  0  0  0  0  0  0
   -1.1501   -4.6761    0.0000 H   0  0  0  0  0  0  0  0  0  0  0  0
   -0.4357   -5.9136    0.0000 H   0  0  0  0  0  0  0  0  0  0  0  0
    0.2788   -6.3261    0.0000 H   0  0  0  0  0  0  0  0  0  0  0  0
    0.2788   -7.1511    0.0000 H   0  0  0  0  0  0  0  0  0  0  0  0
    0.9933   -7.5636    0.0000 H   0  0  0  0  0  0  0  0  0  0  0  0
    3.1367   -5.5011    0.0000 H   0  0  0  0  0  0  0  0  0  0  0  0
    3.8512   -5.9136    0.0000 H   0  0  0  0  0  0  0  0  0  0  0  0
    5.2801   -5.9136    0.0000 H   0  0  0  0  0  0  0  0  0  0  0  0
    6.7090   -6.7386    0.0000 H   0  0  0  0  0  0  0  0  0  0  0  0
    6.7090   -8.3886    0.0000 H   0  0  0  0  0  0  0  0  0  0  0  0
    5.2801   -9.2136    0.0000 H   0  0  0  0  0  0  0  0  0  0  0  0
    1.7077  -10.4511    0.0000 H   0  0  0  0  0  0  0  0  0  0  0  0
    3.1367  -12.9261    0.0000 H   0  0  0  0  0  0  0  0  0  0  0  0
    4.5656  -12.1011    0.0000 H   0  0  0  0  0  0  0  0  0  0  0  0
    4.9781  -11.1656    0.0000 H   0  0  0  0  0  0  0  0  0  0  0  0
    5.2801  -10.0386    0.0000 H   0  0  0  0  0  0  0  0  0  0  0  0
    4.1531   -9.7366    0.0000 H   0  0  0  0  0  0  0  0  0  0  0  0
    1.7077   -7.9761    0.0000 H   0  0  0  0  0  0  0  0  0  0  0  0
    2.4222   -4.2636    0.0000 H   0  0  0  0  0  0  0  0  0  0  0  0
    1.7077   -3.8511    0.0000 H   0  0  0  0  0  0  0  0  0  0  0  0
    1.7077   -3.0261    0.0000 H   0  0  0  0  0  0  0  0  0  0  0  0
    0.9933   -2.6136    0.0000 H   0  0  0  0  0  0  0  0  0  0  0  0
  1  2  1  0  0  0  0
  3  2  4  0  0  0  0
  4  3  4  0  0  0  0
  5  4  4  0  0  0  0
  5  6  1  0  0  0  0
  7  5  4  0  0  0  0
  8  7  4  0  0  0  0
  9  8  1  4  0  0  0
  9 10  2  0  0  0  0
 10 11  1  0  0  0  0
 12 11  4  0  0  0  0
 12 13  1  0  0  0  0
 14 12  4  0  0  0  0
 15 14  4  0  0  0  0
 16 15  4  0  0  0  0
 16 17  4  0  0  0  0
 17 18  4  0  0  0  0
 18 19  4  0  0  0  0
 19 20  4  0  0  0  0
 20 21  4  0  0  0  0
 14 22  1  0  0  0  0
 22 23  2  0  0  0  0
 22 24  1  0  0  0  0
 24 25  1  0  0  0  0
 26 25  4  0  0  0  0
 27 26  4  0  0  0  0
 27 28  1  0  0  0  0
 29 27  4  0  0  0  0
 29 30  1  0  0  0  0
 30 31  1  0  0  0  0
 31 32  2  0  0  0  0
 31 33  1  0  0  0  0
 34 33  4  0  0  0  0
 35 34  4  0  0  0  0
 35 36  4  0  0  0  0
 36 37  4  0  0  0  0
 37 38  4  0  0  0  0
 38 39  4  0  0  0  0
 39 40  4  0  0  0  0
 41 40  4  0  0  0  0
 42 41  1  4  0  0  0
 42 43  2  0  0  0  0
 43 44  1  0  0  0  0
 45 44  4  0  0  0  0
 46 45  4  0  0  0  0
 46 47  1  0  0  0  0
 48 46  4  0  0  0  0
 49 48  4  0  0  0  0
 50 49  4  0  0  0  0
 50 51  1  0  0  0  0
 52 41  4  0  0  0  0
 52 53  1  0  0  0  0
 54 29  4  0  0  0  0
 55 54  4  0  0  0  0
 55 56  1  0  0  0  0
  2  8  4  0  0  0  0
 11 21  4  0  0  0  0
 21 16  4  0  0  0  0
 25 55  4  0  0  0  0
 33 52  4  0  0  0  0
 40 35  4  0  0  0  0
 44 50  4  0  0  0  0
  1 57  1  0  0  0  0
  1 58  1  0  0  0  0
  1 59  1  0  0  0  0
  3 60  1  0  0  0  0
  4 61  1  0  0  0  0
  7 62  1  0  0  0  0
 13 63  1  0  0  0  0
 15 64  1  0  0  0  0
 17 65  1  0  0  0  0
 18 66  1  0  0  0  0
 19 67  1  0  0  0  0
 20 68  1  0  0  0  0
 24 69  1  0  0  0  0
 26 70  1  0  0  0  0
 28 71  1  0  0  0  0
 28 72  1  0  0  0  0
 28 73  1  0  0  0  0
 30 74  1  0  0  0  0
 34 75  1  0  0  0  0
 36 76  1  0  0  0  0
 37 77  1  0  0  0  0
 38 78  1  0  0  0  0
 39 79  1  0  0  0  0
 45 80  1  0  0  0  0
 48 81  1  0  0  0  0
 49 82  1  0  0  0  0
 51 83  1  0  0  0  0
 51 84  1  0  0  0  0
 51 85  1  0  0  0  0
 53 86  1  0  0  0  0
 54 87  1  0  0  0  0
 56 88  1  0  0  0  0
 56 89  1  0  0  0  0
 56 90  1  0  0  0  0
M  END
>  <id_input>
841

>  <InChIKey>
RUASBGDJNNJFOJ-UHFFFAOYSA-N

>  <substance_name>
-

>  <casrn>
79665-24-0

>  <Molecular weight>
781.6845703125

>  <guideline>
OECD Guideline 404 (Acute Dermal Irritation / Corrosion)

>  <species>
rabbit

>  <type_of_coverage>
occlusive

>  <max_duration(hrs)>
24.0

>  <vehicle>
other: 50% aqueous solution of polyethylene glycol

>  <edema/ erythema score>
0.5

>  <max_score>
4.0

>  <reversibility>
0.0

>  <Outcome>
0

>  <StandardizerResult>
Remove Explicit Hydrogens (ID: RemoveExplicitH)
Dearomatize (ID: Dearomatize)
Clear Stereo (ID: ClearStereo)
Wedge Clean (ID: WedgeClean)
Mesomerize (ID: Mesomerize)
Tautomerize (ID: Tautomerize)
Aromatize (ID: Aromatize)
Add Explicit Hydrogens (ID: AddExplicitH)
Neutralize (ID: Neutralize)
Clean 2D (ID: Clean2D)


$$$$

  Mrv1812 02121911042D          

 76 79  0  0  0  0            999 V2000
    4.0253    3.7530    0.0000 C   0  0  0  0  0  0  0  0  0  0  0  0
    3.3108    3.3405    0.0000 C   0  0  0  0  0  0  0  0  0  0  0  0
    3.3108    2.5155    0.0000 O   0  0  0  0  0  0  0  0  0  0  0  0
    2.5964    3.7530    0.0000 C   0  0  0  0  0  0  0  0  0  0  0  0
    1.8819    3.3405    0.0000 N   0  0  0  0  0  0  0  0  0  0  0  0
    1.8819    2.5155    0.0000 N   0  0  0  0  0  0  0  0  0  0  0  0
    1.1674    2.1030    0.0000 C   0  0  0  0  0  0  0  0  0  0  0  0
    0.4530    2.5155    0.0000 C   0  0  0  0  0  0  0  0  0  0  0  0
   -0.2615    2.1030    0.0000 C   0  0  0  0  0  0  0  0  0  0  0  0
   -0.2615    1.2780    0.0000 C   0  0  0  0  0  0  0  0  0  0  0  0
    0.4530    0.8655    0.0000 C   0  0  0  0  0  0  0  0  0  0  0  0
    1.1674    1.2780    0.0000 C   0  0  0  0  0  0  0  0  0  0  0  0
    1.8819    0.8655    0.0000 Cl  0  0  0  0  0  0  0  0  0  0  0  0
   -0.9760    0.8655    0.0000 C   0  0  0  0  0  0  0  0  0  0  0  0
   -1.6905    1.2780    0.0000 C   0  0  0  0  0  0  0  0  0  0  0  0
   -2.4049    0.8655    0.0000 C   0  0  0  0  0  0  0  0  0  0  0  0
   -2.4049    0.0405    0.0000 C   0  0  0  0  0  0  0  0  0  0  0  0
   -3.1194   -0.3720    0.0000 N   0  0  0  0  0  0  0  0  0  0  0  0
   -3.1194   -1.1970    0.0000 N   0  0  0  0  0  0  0  0  0  0  0  0
   -3.8339   -1.6095    0.0000 C   0  0  0  0  0  0  0  0  0  0  0  0
   -4.5483   -1.1970    0.0000 C   0  0  0  0  0  0  0  0  0  0  0  0
   -5.2628   -1.6095    0.0000 C   0  0  0  0  0  0  0  0  0  0  0  0
   -4.5483   -0.3720    0.0000 O   0  0  0  0  0  0  0  0  0  0  0  0
   -3.8339   -2.4345    0.0000 C   0  0  0  0  0  0  0  0  0  0  0  0
   -3.1194   -2.8470    0.0000 O   0  0  0  0  0  0  0  0  0  0  0  0
   -4.5483   -2.8470    0.0000 N   0  0  0  0  0  0  0  0  0  0  0  0
   -4.5483   -3.6720    0.0000 C   0  0  0  0  0  0  0  0  0  0  0  0
   -5.2628   -4.0845    0.0000 C   0  0  0  0  0  0  0  0  0  0  0  0
   -5.2628   -4.9095    0.0000 C   0  0  0  0  0  0  0  0  0  0  0  0
   -4.5483   -5.3220    0.0000 C   0  0  0  0  0  0  0  0  0  0  0  0
   -4.5483   -6.1470    0.0000 C   0  0  0  0  0  0  0  0  0  0  0  0
   -3.8339   -4.9095    0.0000 C   0  0  0  0  0  0  0  0  0  0  0  0
   -3.8339   -4.0845    0.0000 C   0  0  0  0  0  0  0  0  0  0  0  0
   -1.6905   -0.3720    0.0000 C   0  0  0  0  0  0  0  0  0  0  0  0
   -1.6905   -1.1970    0.0000 Cl  0  0  0  0  0  0  0  0  0  0  0  0
   -0.9760    0.0405    0.0000 C   0  0  0  0  0  0  0  0  0  0  0  0
    2.5964    4.5780    0.0000 C   0  0  0  0  0  0  0  0  0  0  0  0
    1.8819    4.9905    0.0000 O   0  0  0  0  0  0  0  0  0  0  0  0
    3.3108    4.9905    0.0000 N   0  0  0  0  0  0  0  0  0  0  0  0
    3.3108    5.8155    0.0000 C   0  0  0  0  0  0  0  0  0  0  0  0
    4.0253    6.2280    0.0000 C   0  0  0  0  0  0  0  0  0  0  0  0
    4.0253    7.0530    0.0000 C   0  0  0  0  0  0  0  0  0  0  0  0
    3.3108    7.4655    0.0000 C   0  0  0  0  0  0  0  0  0  0  0  0
    3.3108    8.2905    0.0000 C   0  0  0  0  0  0  0  0  0  0  0  0
    2.5964    7.0530    0.0000 C   0  0  0  0  0  0  0  0  0  0  0  0
    2.5964    6.2280    0.0000 C   0  0  0  0  0  0  0  0  0  0  0  0
    4.4378    3.0385    0.0000 H   0  0  0  0  0  0  0  0  0  0  0  0
    4.7398    4.1655    0.0000 H   0  0  0  0  0  0  0  0  0  0  0  0
    3.6128    4.4675    0.0000 H   0  0  0  0  0  0  0  0  0  0  0  0
    2.5964    2.1030    0.0000 H   0  0  0  0  0  0  0  0  0  0  0  0
    0.4530    3.3405    0.0000 H   0  0  0  0  0  0  0  0  0  0  0  0
   -0.9760    2.5155    0.0000 H   0  0  0  0  0  0  0  0  0  0  0  0
    0.4530    0.0405    0.0000 H   0  0  0  0  0  0  0  0  0  0  0  0
   -1.6905    2.1030    0.0000 H   0  0  0  0  0  0  0  0  0  0  0  0
   -3.1194    1.2780    0.0000 H   0  0  0  0  0  0  0  0  0  0  0  0
   -3.8339    0.0405    0.0000 H   0  0  0  0  0  0  0  0  0  0  0  0
   -5.6753   -0.8950    0.0000 H   0  0  0  0  0  0  0  0  0  0  0  0
   -5.9773   -2.0220    0.0000 H   0  0  0  0  0  0  0  0  0  0  0  0
   -4.8503   -2.3240    0.0000 H   0  0  0  0  0  0  0  0  0  0  0  0
   -5.3452   -3.0605    0.0000 H   0  0  0  0  0  0  0  0  0  0  0  0
   -5.9773   -3.6720    0.0000 H   0  0  0  0  0  0  0  0  0  0  0  0
   -5.9773   -5.3220    0.0000 H   0  0  0  0  0  0  0  0  0  0  0  0
   -5.3733   -6.1470    0.0000 H   0  0  0  0  0  0  0  0  0  0  0  0
   -4.5483   -6.9720    0.0000 H   0  0  0  0  0  0  0  0  0  0  0  0
   -3.7233   -6.1470    0.0000 H   0  0  0  0  0  0  0  0  0  0  0  0
   -3.1194   -5.3220    0.0000 H   0  0  0  0  0  0  0  0  0  0  0  0
   -3.1194   -3.6720    0.0000 H   0  0  0  0  0  0  0  0  0  0  0  0
   -0.2615   -0.3720    0.0000 H   0  0  0  0  0  0  0  0  0  0  0  0
    4.1077    5.2040    0.0000 H   0  0  0  0  0  0  0  0  0  0  0  0
    4.7398    5.8155    0.0000 H   0  0  0  0  0  0  0  0  0  0  0  0
    4.7398    7.4655    0.0000 H   0  0  0  0  0  0  0  0  0  0  0  0
    4.1358    8.2905    0.0000 H   0  0  0  0  0  0  0  0  0  0  0  0
    3.3108    9.1155    0.0000 H   0  0  0  0  0  0  0  0  0  0  0  0
    2.4858    8.2905    0.0000 H   0  0  0  0  0  0  0  0  0  0  0  0
    1.8819    7.4655    0.0000 H   0  0  0  0  0  0  0  0  0  0  0  0
    1.8819    5.8155    0.0000 H   0  0  0  0  0  0  0  0  0  0  0  0
  1  2  1  0  0  0  0
  2  3  2  0  0  0  0
  2  4  1  0  0  0  0
  4  5  2  0  0  0  0
  5  6  1  0  0  0  0
  6  7  1  0  0  0  0
  8  7  4  0  0  0  0
  9  8  4  0  0  0  0
 10  9  4  0  0  0  0
 11 10  4  0  0  0  0
 12 11  4  0  0  0  0
 12 13  1  0  0  0  0
 10 14  1  0  0  0  0
 15 14  4  0  0  0  0
 16 15  4  0  0  0  0
 17 16  4  0  0  0  0
 17 18  1  0  0  0  0
 19 18  1  0  0  0  0
 19 20  2  0  0  0  0
 20 21  1  0  0  0  0
 21 22  1  0  0  0  0
 21 23  2  0  0  0  0
 20 24  1  0  0  0  0
 24 25  2  0  0  0  0
 24 26  1  0  0  0  0
 26 27  1  0  0  0  0
 28 27  4  0  0  0  0
 29 28  4  0  0  0  0
 30 29  4  0  0  0  0
 30 31  1  0  0  0  0
 32 30  4  0  0  0  0
 33 32  4  0  0  0  0
 34 17  4  0  0  0  0
 34 35  1  0  0  0  0
 36 34  4  0  0  0  0
  4 37  1  0  0  0  0
 37 38  2  0  0  0  0
 37 39  1  0  0  0  0
 39 40  1  0  0  0  0
 41 40  4  0  0  0  0
 42 41  4  0  0  0  0
 43 42  4  0  0  0  0
 43 44  1  0  0  0  0
 45 43  4  0  0  0  0
 46 45  4  0  0  0  0
  7 12  4  0  0  0  0
 14 36  4  0  0  0  0
 27 33  4  0  0  0  0
 40 46  4  0  0  0  0
  1 47  1  0  0  0  0
  1 48  1  0  0  0  0
  1 49  1  0  0  0  0
  6 50  1  0  0  0  0
  8 51  1  0  0  0  0
  9 52  1  0  0  0  0
 11 53  1  0  0  0  0
 15 54  1  0  0  0  0
 16 55  1  0  0  0  0
 18 56  1  0  0  0  0
 22 57  1  0  0  0  0
 22 58  1  0  0  0  0
 22 59  1  0  0  0  0
 26 60  1  0  0  0  0
 28 61  1  0  0  0  0
 29 62  1  0  0  0  0
 31 63  1  0  0  0  0
 31 64  1  0  0  0  0
 31 65  1  0  0  0  0
 32 66  1  0  0  0  0
 33 67  1  0  0  0  0
 36 68  1  0  0  0  0
 39 69  1  0  0  0  0
 41 70  1  0  0  0  0
 42 71  1  0  0  0  0
 44 72  1  0  0  0  0
 44 73  1  0  0  0  0
 44 74  1  0  0  0  0
 45 75  1  0  0  0  0
 46 76  1  0  0  0  0
M  END
>  <id_input>
2033, 2037

>  <InChIKey>
KTEBZTBDPMBYMR-UHFFFAOYSA-N

>  <substance_name>
2,2'-[(3,3'-dichlorobiphenyl-4,4'-diyl)didiazene-2,1-diyl]bis[N-(4-methylphenyl)-3-oxobutanamide]

>  <casrn>
6358-37-8

>  <Molecular weight>
657.5457763671875

>  <guideline>
OECD Guideline 404 (Acute Dermal Irritation / Corrosion)

>  <species>
rabbit

>  <type_of_coverage>
semiocclusive

>  <max_duration(hrs)>
4.0

>  <vehicle>
other: polyethylene glycol 400

>  <edema/ erythema score>
0.3316666666666665

>  <max_score>
4.0

>  <reversibility>
0.0

>  <Outcome>
0

>  <StandardizerResult>
Remove Explicit Hydrogens (ID: RemoveExplicitH)
Dearomatize (ID: Dearomatize)
Clear Stereo (ID: ClearStereo)
Wedge Clean (ID: WedgeClean)
Mesomerize (ID: Mesomerize)
Tautomerize (ID: Tautomerize)
Aromatize (ID: Aromatize)
Add Explicit Hydrogens (ID: AddExplicitH)
Neutralize (ID: Neutralize)
Clean 2D (ID: Clean2D)


$$$$

  Mrv1812 02121911042D          

 74 79  0  0  0  0            999 V2000
    0.8915    9.0607    0.0000 C   0  0  0  0  0  0  0  0  0  0  0  0
    0.1069    8.8058    0.0000 C   0  0  0  0  0  0  0  0  0  0  0  0
   -0.5062    9.3578    0.0000 C   0  0  0  0  0  0  0  0  0  0  0  0
   -1.2908    9.1029    0.0000 C   0  0  0  0  0  0  0  0  0  0  0  0
   -1.4623    8.2959    0.0000 C   0  0  0  0  0  0  0  0  0  0  0  0
   -0.8492    7.7439    0.0000 C   0  0  0  0  0  0  0  0  0  0  0  0
   -0.0646    7.9988    0.0000 C   0  0  0  0  0  0  0  0  0  0  0  0
   -2.2469    8.0410    0.0000 N   0  0  0  0  0  0  0  0  0  0  0  0
   -2.9144    8.5259    0.0000 N   0  0  0  0  0  0  0  0  0  0  0  0
   -3.5818    8.0410    0.0000 C   0  0  0  0  0  0  0  0  0  0  0  0
   -4.3664    8.2959    0.0000 C   0  0  0  0  0  0  0  0  0  0  0  0
   -3.3269    7.2563    0.0000 C   0  0  0  0  0  0  0  0  0  0  0  0
   -3.8118    6.5889    0.0000 N   0  0  0  0  0  0  0  0  0  0  0  0
   -4.6323    6.6751    0.0000 N   0  0  0  0  0  0  0  0  0  0  0  0
   -5.1172    6.0077    0.0000 C   0  0  0  0  0  0  0  0  0  0  0  0
   -5.9377    6.0939    0.0000 C   0  0  0  0  0  0  0  0  0  0  0  0
   -6.4226    5.4265    0.0000 C   0  0  0  0  0  0  0  0  0  0  0  0
   -6.0871    4.6728    0.0000 C   0  0  0  0  0  0  0  0  0  0  0  0
   -5.2666    4.5866    0.0000 C   0  0  0  0  0  0  0  0  0  0  0  0
   -4.7817    5.2540    0.0000 C   0  0  0  0  0  0  0  0  0  0  0  0
   -3.9612    5.1678    0.0000 Cl  0  0  0  0  0  0  0  0  0  0  0  0
   -6.5720    4.0054    0.0000 C   0  0  0  0  0  0  0  0  0  0  0  0
   -7.3925    4.0916    0.0000 C   0  0  0  0  0  0  0  0  0  0  0  0
   -7.8774    3.4242    0.0000 C   0  0  0  0  0  0  0  0  0  0  0  0
   -7.5418    2.6705    0.0000 C   0  0  0  0  0  0  0  0  0  0  0  0
   -8.0267    2.0031    0.0000 N   0  0  0  0  0  0  0  0  0  0  0  0
   -7.6912    1.2494    0.0000 N   0  0  0  0  0  0  0  0  0  0  0  0
   -8.1761    0.5819    0.0000 C   0  0  0  0  0  0  0  0  0  0  0  0
   -9.0011    0.5819    0.0000 C   0  0  0  0  0  0  0  0  0  0  0  0
   -9.2561   -0.2027    0.0000 N   0  0  0  0  0  0  0  0  0  0  0  0
   -8.5886   -0.6876    0.0000 N   0  0  0  0  0  0  0  0  0  0  0  0
   -8.5886   -1.5126    0.0000 C   0  0  0  0  0  0  0  0  0  0  0  0
   -9.3031   -1.9251    0.0000 C   0  0  0  0  0  0  0  0  0  0  0  0
   -9.3031   -2.7501    0.0000 C   0  0  0  0  0  0  0  0  0  0  0  0
   -8.5886   -3.1626    0.0000 C   0  0  0  0  0  0  0  0  0  0  0  0
   -8.5886   -3.9876    0.0000 C   0  0  0  0  0  0  0  0  0  0  0  0
   -7.8741   -2.7501    0.0000 C   0  0  0  0  0  0  0  0  0  0  0  0
   -7.8741   -1.9251    0.0000 C   0  0  0  0  0  0  0  0  0  0  0  0
   -7.9212   -0.2027    0.0000 C   0  0  0  0  0  0  0  0  0  0  0  0
   -7.1366   -0.4576    0.0000 O   0  0  0  0  0  0  0  0  0  0  0  0
   -9.4860    1.2494    0.0000 C   0  0  0  0  0  0  0  0  0  0  0  0
   -6.7213    2.5843    0.0000 C   0  0  0  0  0  0  0  0  0  0  0  0
   -6.3858    1.8306    0.0000 Cl  0  0  0  0  0  0  0  0  0  0  0  0
   -6.2364    3.2517    0.0000 C   0  0  0  0  0  0  0  0  0  0  0  0
   -2.5019    7.2563    0.0000 C   0  0  0  0  0  0  0  0  0  0  0  0
   -2.0170    6.5889    0.0000 O   0  0  0  0  0  0  0  0  0  0  0  0
    1.1465    8.2761    0.0000 H   0  0  0  0  0  0  0  0  0  0  0  0
    1.6762    9.3157    0.0000 H   0  0  0  0  0  0  0  0  0  0  0  0
    0.6366    9.8453    0.0000 H   0  0  0  0  0  0  0  0  0  0  0  0
   -0.3346   10.1648    0.0000 H   0  0  0  0  0  0  0  0  0  0  0  0
   -1.9039    9.6549    0.0000 H   0  0  0  0  0  0  0  0  0  0  0  0
   -1.0208    6.9369    0.0000 H   0  0  0  0  0  0  0  0  0  0  0  0
    0.5485    7.4468    0.0000 H   0  0  0  0  0  0  0  0  0  0  0  0
   -2.9144    9.3509    0.0000 H   0  0  0  0  0  0  0  0  0  0  0  0
   -4.1115    9.0805    0.0000 H   0  0  0  0  0  0  0  0  0  0  0  0
   -5.1511    8.5508    0.0000 H   0  0  0  0  0  0  0  0  0  0  0  0
   -4.6214    7.5113    0.0000 H   0  0  0  0  0  0  0  0  0  0  0  0
   -6.2732    6.8476    0.0000 H   0  0  0  0  0  0  0  0  0  0  0  0
   -7.2431    5.5127    0.0000 H   0  0  0  0  0  0  0  0  0  0  0  0
   -4.9310    3.8329    0.0000 H   0  0  0  0  0  0  0  0  0  0  0  0
   -7.7280    4.8453    0.0000 H   0  0  0  0  0  0  0  0  0  0  0  0
   -8.6979    3.5104    0.0000 H   0  0  0  0  0  0  0  0  0  0  0  0
  -10.0407   -0.4576    0.0000 H   0  0  0  0  0  0  0  0  0  0  0  0
  -10.0176   -1.5126    0.0000 H   0  0  0  0  0  0  0  0  0  0  0  0
  -10.0176   -3.1626    0.0000 H   0  0  0  0  0  0  0  0  0  0  0  0
   -9.4136   -3.9876    0.0000 H   0  0  0  0  0  0  0  0  0  0  0  0
   -8.5886   -4.8126    0.0000 H   0  0  0  0  0  0  0  0  0  0  0  0
   -7.7636   -3.9876    0.0000 H   0  0  0  0  0  0  0  0  0  0  0  0
   -7.1597   -3.1626    0.0000 H   0  0  0  0  0  0  0  0  0  0  0  0
   -7.1597   -1.5126    0.0000 H   0  0  0  0  0  0  0  0  0  0  0  0
   -8.8186    1.7343    0.0000 H   0  0  0  0  0  0  0  0  0  0  0  0
   -9.9710    1.9168    0.0000 H   0  0  0  0  0  0  0  0  0  0  0  0
  -10.1535    0.7645    0.0000 H   0  0  0  0  0  0  0  0  0  0  0  0
   -5.4159    3.1655    0.0000 H   0  0  0  0  0  0  0  0  0  0  0  0
  1  2  1  0  0  0  0
  3  2  4  0  0  0  0
  4  3  4  0  0  0  0
  5  4  4  0  0  0  0
  6  5  4  0  0  0  0
  7  6  4  0  0  0  0
  5  8  1  0  0  0  0
  9  8  1  0  0  0  0
 10  9  1  0  0  0  0
 10 11  1  0  0  0  0
 12 10  2  0  0  0  0
 13 12  1  0  0  0  0
 13 14  2  0  0  0  0
 14 15  1  0  0  0  0
 16 15  4  0  0  0  0
 17 16  4  0  0  0  0
 18 17  4  0  0  0  0
 19 18  4  0  0  0  0
 20 19  4  0  0  0  0
 20 21  1  0  0  0  0
 18 22  1  0  0  0  0
 23 22  4  0  0  0  0
 24 23  4  0  0  0  0
 25 24  4  0  0  0  0
 26 25  1  4  0  0  0
 26 27  2  0  0  0  0
 27 28  1  0  0  0  0
 29 28  2  0  0  0  0
 30 29  1  0  0  0  0
 31 30  1  0  0  0  0
 31 32  1  0  0  0  0
 33 32  4  0  0  0  0
 34 33  4  0  0  0  0
 35 34  4  0  0  0  0
 35 36  1  0  0  0  0
 37 35  4  0  0  0  0
 38 37  4  0  0  0  0
 39 31  1  0  0  0  0
 39 40  2  0  0  0  0
 29 41  1  0  0  0  0
 42 25  4  0  0  0  0
 42 43  1  0  0  0  0
 44 42  4  0  0  0  0
 45 12  1  0  0  0  0
 45 46  2  0  0  0  0
  2  7  4  0  0  0  0
  8 45  1  0  0  0  0
 15 20  4  0  0  0  0
 22 44  4  0  0  0  0
 28 39  1  0  0  0  0
 32 38  4  0  0  0  0
  1 47  1  0  0  0  0
  1 48  1  0  0  0  0
  1 49  1  0  0  0  0
  3 50  1  0  0  0  0
  4 51  1  0  0  0  0
  6 52  1  0  0  0  0
  7 53  1  0  0  0  0
  9 54  1  0  0  0  0
 11 55  1  0  0  0  0
 11 56  1  0  0  0  0
 11 57  1  0  0  0  0
 16 58  1  0  0  0  0
 17 59  1  0  0  0  0
 19 60  1  0  0  0  0
 23 61  1  0  0  0  0
 24 62  1  0  0  0  0
 30 63  1  0  0  0  0
 33 64  1  0  0  0  0
 34 65  1  0  0  0  0
 36 66  1  0  0  0  0
 36 67  1  0  0  0  0
 36 68  1  0  0  0  0
 37 69  1  0  0  0  0
 38 70  1  0  0  0  0
 41 71  1  0  0  0  0
 41 72  1  0  0  0  0
 41 73  1  0  0  0  0
 44 74  1  0  0  0  0
M  END
>  <id_input>
2854, 2855

>  <InChIKey>
RFIPNWKPHISYFV-HVMBLDELSA-N

>  <substance_name>
4-[(E)-2-(2-chloro-4-{3-chloro-4-[(E)-2-[3-methyl-1-(4-methylphenyl)-5-oxo-4,5-dihydro-1H-pyrazol-4-yl]diazen-1-yl]phenyl}phenyl)diazen-1-yl]-3-methyl-1-(4-methylphenyl)-4,5-dihydro-1H-pyrazol-5-one

>  <casrn>
15793-73-4

>  <Molecular weight>
651.5444946289062

>  <guideline>
OECD Guideline 404 (Acute Dermal Irritation / Corrosion)

>  <species>
rabbit

>  <type_of_coverage>
semiocclusive

>  <max_duration(hrs)>
4.0

>  <vehicle>
other: purified water

>  <edema/ erythema score>
0.0

>  <max_score>
4.0

>  <reversibility>
0.0

>  <Outcome>
0

>  <StandardizerResult>
Remove Explicit Hydrogens (ID: RemoveExplicitH)
Dearomatize (ID: Dearomatize)
Clear Stereo (ID: ClearStereo)
Wedge Clean (ID: WedgeClean)
Mesomerize (ID: Mesomerize)
Tautomerize (ID: Tautomerize)
Aromatize (ID: Aromatize)
Add Explicit Hydrogens (ID: AddExplicitH)
Neutralize (ID: Neutralize)
Clean 2D (ID: Clean2D)


$$$$

  Mrv1812 02121911042D          

 86 89  0  0  0  0            999 V2000
    5.7065  -11.2205    0.0000 C   0  0  0  0  0  0  0  0  0  0  0  0
    4.9921  -10.8080    0.0000 O   0  0  0  0  0  0  0  0  0  0  0  0
    4.2776  -11.2205    0.0000 C   0  0  0  0  0  0  0  0  0  0  0  0
    3.5631  -10.8080    0.0000 C   0  0  0  0  0  0  0  0  0  0  0  0
    2.8487  -11.2205    0.0000 C   0  0  0  0  0  0  0  0  0  0  0  0
    2.1342  -10.8080    0.0000 N   0  0  0  0  0  0  0  0  0  0  0  0
    2.1342   -9.9830    0.0000 C   0  0  0  0  0  0  0  0  0  0  0  0
    2.8487   -9.5705    0.0000 O   0  0  0  0  0  0  0  0  0  0  0  0
    1.4197   -9.5705    0.0000 C   0  0  0  0  0  0  0  0  0  0  0  0
    1.4197   -8.7455    0.0000 N   0  0  0  0  0  0  0  0  0  0  0  0
    0.7052   -8.3330    0.0000 N   0  0  0  0  0  0  0  0  0  0  0  0
    0.7052   -7.5080    0.0000 C   0  0  0  0  0  0  0  0  0  0  0  0
    1.4197   -7.0955    0.0000 C   0  0  0  0  0  0  0  0  0  0  0  0
    1.4197   -6.2705    0.0000 C   0  0  0  0  0  0  0  0  0  0  0  0
    0.7052   -5.8580    0.0000 C   0  0  0  0  0  0  0  0  0  0  0  0
   -0.0092   -6.2705    0.0000 C   0  0  0  0  0  0  0  0  0  0  0  0
   -0.0092   -7.0955    0.0000 C   0  0  0  0  0  0  0  0  0  0  0  0
   -0.7237   -7.5080    0.0000 Cl  0  0  0  0  0  0  0  0  0  0  0  0
    0.7052   -5.0330    0.0000 C   0  0  0  0  0  0  0  0  0  0  0  0
    1.4197   -4.6205    0.0000 C   0  0  0  0  0  0  0  0  0  0  0  0
    1.4197   -3.7955    0.0000 C   0  0  0  0  0  0  0  0  0  0  0  0
    0.7052   -3.3830    0.0000 C   0  0  0  0  0  0  0  0  0  0  0  0
    0.7052   -2.5580    0.0000 N   0  0  0  0  0  0  0  0  0  0  0  0
   -0.0092   -2.1455    0.0000 N   0  0  0  0  0  0  0  0  0  0  0  0
   -0.0092   -1.3205    0.0000 C   0  0  0  0  0  0  0  0  0  0  0  0
    0.7052   -0.9080    0.0000 C   0  0  0  0  0  0  0  0  0  0  0  0
    0.7052   -0.0830    0.0000 C   0  0  0  0  0  0  0  0  0  0  0  0
    1.4197   -1.3205    0.0000 O   0  0  0  0  0  0  0  0  0  0  0  0
   -0.7237   -0.9080    0.0000 C   0  0  0  0  0  0  0  0  0  0  0  0
   -0.7237   -0.0830    0.0000 O   0  0  0  0  0  0  0  0  0  0  0  0
   -1.4382   -1.3205    0.0000 N   0  0  0  0  0  0  0  0  0  0  0  0
   -2.1526   -0.9080    0.0000 C   0  0  0  0  0  0  0  0  0  0  0  0
   -2.1526   -0.0830    0.0000 C   0  0  0  0  0  0  0  0  0  0  0  0
   -2.8671    0.3295    0.0000 C   0  0  0  0  0  0  0  0  0  0  0  0
   -2.8671    1.1545    0.0000 O   0  0  0  0  0  0  0  0  0  0  0  0
   -3.5816    1.5670    0.0000 C   0  0  0  0  0  0  0  0  0  0  0  0
   -3.5816   -0.0830    0.0000 C   0  0  0  0  0  0  0  0  0  0  0  0
   -4.2961    0.3295    0.0000 Cl  0  0  0  0  0  0  0  0  0  0  0  0
   -3.5816   -0.9080    0.0000 C   0  0  0  0  0  0  0  0  0  0  0  0
   -2.8671   -1.3205    0.0000 C   0  0  0  0  0  0  0  0  0  0  0  0
   -2.8671   -2.1455    0.0000 O   0  0  0  0  0  0  0  0  0  0  0  0
   -2.1526   -2.5580    0.0000 C   0  0  0  0  0  0  0  0  0  0  0  0
   -0.0092   -3.7955    0.0000 C   0  0  0  0  0  0  0  0  0  0  0  0
   -0.7237   -3.3830    0.0000 Cl  0  0  0  0  0  0  0  0  0  0  0  0
   -0.0092   -4.6205    0.0000 C   0  0  0  0  0  0  0  0  0  0  0  0
    0.7052   -9.9830    0.0000 C   0  0  0  0  0  0  0  0  0  0  0  0
   -0.0092   -9.5705    0.0000 C   0  0  0  0  0  0  0  0  0  0  0  0
    0.7052  -10.8080    0.0000 O   0  0  0  0  0  0  0  0  0  0  0  0
    2.8487  -12.0455    0.0000 C   0  0  0  0  0  0  0  0  0  0  0  0
    2.1342  -12.4580    0.0000 O   0  0  0  0  0  0  0  0  0  0  0  0
    2.1342  -13.2830    0.0000 C   0  0  0  0  0  0  0  0  0  0  0  0
    3.5631  -12.4580    0.0000 C   0  0  0  0  0  0  0  0  0  0  0  0
    4.2776  -12.0455    0.0000 C   0  0  0  0  0  0  0  0  0  0  0  0
    4.9921  -12.4580    0.0000 Cl  0  0  0  0  0  0  0  0  0  0  0  0
    5.2940  -11.9350    0.0000 H   0  0  0  0  0  0  0  0  0  0  0  0
    6.4210  -11.6330    0.0000 H   0  0  0  0  0  0  0  0  0  0  0  0
    6.1190  -10.5061    0.0000 H   0  0  0  0  0  0  0  0  0  0  0  0
    3.5631   -9.9830    0.0000 H   0  0  0  0  0  0  0  0  0  0  0  0
    1.4197  -11.2205    0.0000 H   0  0  0  0  0  0  0  0  0  0  0  0
   -0.0092   -8.7455    0.0000 H   0  0  0  0  0  0  0  0  0  0  0  0
    2.1342   -7.5080    0.0000 H   0  0  0  0  0  0  0  0  0  0  0  0
    2.1342   -5.8580    0.0000 H   0  0  0  0  0  0  0  0  0  0  0  0
   -0.7237   -5.8580    0.0000 H   0  0  0  0  0  0  0  0  0  0  0  0
    2.1342   -5.0330    0.0000 H   0  0  0  0  0  0  0  0  0  0  0  0
    2.1342   -3.3830    0.0000 H   0  0  0  0  0  0  0  0  0  0  0  0
    1.4197   -2.1455    0.0000 H   0  0  0  0  0  0  0  0  0  0  0  0
    1.5302   -0.0830    0.0000 H   0  0  0  0  0  0  0  0  0  0  0  0
    0.7052    0.7420    0.0000 H   0  0  0  0  0  0  0  0  0  0  0  0
   -0.1198   -0.0830    0.0000 H   0  0  0  0  0  0  0  0  0  0  0  0
   -1.4382   -2.1455    0.0000 H   0  0  0  0  0  0  0  0  0  0  0  0
   -1.4382    0.3295    0.0000 H   0  0  0  0  0  0  0  0  0  0  0  0
   -3.1691    2.2814    0.0000 H   0  0  0  0  0  0  0  0  0  0  0  0
   -4.2961    1.9795    0.0000 H   0  0  0  0  0  0  0  0  0  0  0  0
   -3.9941    0.8525    0.0000 H   0  0  0  0  0  0  0  0  0  0  0  0
   -4.2961   -1.3205    0.0000 H   0  0  0  0  0  0  0  0  0  0  0  0
   -2.8671   -2.9705    0.0000 H   0  0  0  0  0  0  0  0  0  0  0  0
   -2.1526   -3.3830    0.0000 H   0  0  0  0  0  0  0  0  0  0  0  0
   -1.4382   -2.9705    0.0000 H   0  0  0  0  0  0  0  0  0  0  0  0
   -0.7237   -5.0330    0.0000 H   0  0  0  0  0  0  0  0  0  0  0  0
   -0.7237   -9.1580    0.0000 H   0  0  0  0  0  0  0  0  0  0  0  0
   -0.7237   -9.9830    0.0000 H   0  0  0  0  0  0  0  0  0  0  0  0
   -0.0092  -10.3955    0.0000 H   0  0  0  0  0  0  0  0  0  0  0  0
    1.3092  -13.2830    0.0000 H   0  0  0  0  0  0  0  0  0  0  0  0
    2.1342  -14.1080    0.0000 H   0  0  0  0  0  0  0  0  0  0  0  0
    2.9592  -13.2830    0.0000 H   0  0  0  0  0  0  0  0  0  0  0  0
    3.5631  -13.2830    0.0000 H   0  0  0  0  0  0  0  0  0  0  0  0
  1  2  1  0  0  0  0
  2  3  1  0  0  0  0
  4  3  4  0  0  0  0
  5  4  4  0  0  0  0
  5  6  1  0  0  0  0
  6  7  1  0  0  0  0
  7  8  2  0  0  0  0
  7  9  1  0  0  0  0
  9 10  2  0  0  0  0
 10 11  1  0  0  0  0
 11 12  1  0  0  0  0
 13 12  4  0  0  0  0
 14 13  4  0  0  0  0
 15 14  4  0  0  0  0
 16 15  4  0  0  0  0
 17 16  4  0  0  0  0
 17 18  1  0  0  0  0
 15 19  1  0  0  0  0
 20 19  4  0  0  0  0
 21 20  4  0  0  0  0
 22 21  4  0  0  0  0
 22 23  1  0  0  0  0
 24 23  1  0  0  0  0
 24 25  2  0  0  0  0
 25 26  1  0  0  0  0
 26 27  1  0  0  0  0
 26 28  2  0  0  0  0
 25 29  1  0  0  0  0
 29 30  2  0  0  0  0
 29 31  1  0  0  0  0
 31 32  1  0  0  0  0
 33 32  4  0  0  0  0
 34 33  4  0  0  0  0
 34 35  1  0  0  0  0
 35 36  1  0  0  0  0
 37 34  4  0  0  0  0
 37 38  1  0  0  0  0
 39 37  4  0  0  0  0
 40 39  4  0  0  0  0
 40 41  1  0  0  0  0
 41 42  1  0  0  0  0
 43 22  4  0  0  0  0
 43 44  1  0  0  0  0
 45 43  4  0  0  0  0
  9 46  1  0  0  0  0
 46 47  1  0  0  0  0
 46 48  2  0  0  0  0
 49  5  4  0  0  0  0
 49 50  1  0  0  0  0
 50 51  1  0  0  0  0
 52 49  4  0  0  0  0
 53 52  4  0  0  0  0
 53 54  1  0  0  0  0
  3 53  4  0  0  0  0
 12 17  4  0  0  0  0
 19 45  4  0  0  0  0
 32 40  4  0  0  0  0
  1 55  1  0  0  0  0
  1 56  1  0  0  0  0
  1 57  1  0  0  0  0
  4 58  1  0  0  0  0
  6 59  1  0  0  0  0
 11 60  1  0  0  0  0
 13 61  1  0  0  0  0
 14 62  1  0  0  0  0
 16 63  1  0  0  0  0
 20 64  1  0  0  0  0
 21 65  1  0  0  0  0
 23 66  1  0  0  0  0
 27 67  1  0  0  0  0
 27 68  1  0  0  0  0
 27 69  1  0  0  0  0
 31 70  1  0  0  0  0
 33 71  1  0  0  0  0
 36 72  1  0  0  0  0
 36 73  1  0  0  0  0
 36 74  1  0  0  0  0
 39 75  1  0  0  0  0
 42 76  1  0  0  0  0
 42 77  1  0  0  0  0
 42 78  1  0  0  0  0
 45 79  1  0  0  0  0
 47 80  1  0  0  0  0
 47 81  1  0  0  0  0
 47 82  1  0  0  0  0
 51 83  1  0  0  0  0
 51 84  1  0  0  0  0
 51 85  1  0  0  0  0
 52 86  1  0  0  0  0
M  END
>  <id_input>
3442, 3443, 3444, 3445, 3448, 3452

>  <InChIKey>
YNMIXGFEAKDKFG-UHFFFAOYSA-N

>  <substance_name>
N-(4-chloro-2,5-dimethoxyphenyl)-2-[(E)-2-(2-chloro-4-{3-chloro-4-[(E)-2-{1-[(4-chloro-2,5-dimethoxyphenyl)carbamoyl]-2-oxopropyl}diazen-1-yl]phenyl}phenyl)diazen-1-yl]-3-oxobutanamide

>  <casrn>
5567-15-7

>  <Molecular weight>
818.4866943359375

>  <guideline>
OECD Guideline 404 (Acute Dermal Irritation / Corrosion)

>  <species>
rabbit

>  <type_of_coverage>
semiocclusive

>  <max_duration(hrs)>
4.0

>  <vehicle>
other: polyethylene glycol 400

>  <edema/ erythema score>
0.9813888888888872

>  <max_score>
4.0

>  <reversibility>
0.0

>  <Outcome>
0

>  <StandardizerResult>
Remove Explicit Hydrogens (ID: RemoveExplicitH)
Dearomatize (ID: Dearomatize)
Clear Stereo (ID: ClearStereo)
Wedge Clean (ID: WedgeClean)
Mesomerize (ID: Mesomerize)
Tautomerize (ID: Tautomerize)
Aromatize (ID: Aromatize)
Add Explicit Hydrogens (ID: AddExplicitH)
Neutralize (ID: Neutralize)
Clean 2D (ID: Clean2D)


$$$$

  Mrv1812 02121911042D          

 31 32  0  0  0  0            999 V2000
    1.3623    0.4931    0.0000 C   0  0  0  0  0  0  0  0  0  0  0  0
    1.1908   -0.3139    0.0000 C   0  0  0  0  0  0  0  0  0  0  0  0
    0.4061   -0.5688    0.0000 C   0  0  0  0  0  0  0  0  0  0  0  0
    0.2346   -1.3758    0.0000 N   0  0  0  0  0  0  0  0  0  0  0  0
   -0.5500   -1.6307    0.0000 C   0  0  0  0  0  0  0  0  0  0  0  0
   -1.2174   -1.1458    0.0000 C   0  0  0  0  0  0  0  0  0  0  0  0
   -1.8849   -1.6307    0.0000 C   0  0  0  0  0  0  0  0  0  0  0  0
   -2.6695   -1.3758    0.0000 O   0  0  0  0  0  0  0  0  0  0  0  0
   -1.6299   -2.4153    0.0000 C   0  0  0  0  0  0  0  0  0  0  0  0
   -2.1149   -3.0828    0.0000 C   0  0  0  0  0  0  0  0  0  0  0  0
   -2.9353   -2.9965    0.0000 O   0  0  0  0  0  0  0  0  0  0  0  0
   -0.8049   -2.4153    0.0000 O   0  0  0  0  0  0  0  0  0  0  0  0
    0.8477   -1.9278    0.0000 C   0  0  0  0  0  0  0  0  0  0  0  0
    0.6762   -2.7348    0.0000 O   0  0  0  0  0  0  0  0  0  0  0  0
    1.6323   -1.6729    0.0000 N   0  0  0  0  0  0  0  0  0  0  0  0
    1.8039   -0.8659    0.0000 C   0  0  0  0  0  0  0  0  0  0  0  0
    2.5885   -0.6109    0.0000 O   0  0  0  0  0  0  0  0  0  0  0  0
    2.1693    0.3216    0.0000 H   0  0  0  0  0  0  0  0  0  0  0  0
    1.5338    1.3001    0.0000 H   0  0  0  0  0  0  0  0  0  0  0  0
    0.5553    0.6646    0.0000 H   0  0  0  0  0  0  0  0  0  0  0  0
   -0.2069   -0.0168    0.0000 H   0  0  0  0  0  0  0  0  0  0  0  0
   -0.4209   -0.8159    0.0000 H   0  0  0  0  0  0  0  0  0  0  0  0
   -1.3287   -0.3283    0.0000 H   0  0  0  0  0  0  0  0  0  0  0  0
   -1.8563   -0.6238    0.0000 H   0  0  0  0  0  0  0  0  0  0  0  0
   -2.0139   -0.8159    0.0000 H   0  0  0  0  0  0  0  0  0  0  0  0
   -3.4786   -1.5367    0.0000 H   0  0  0  0  0  0  0  0  0  0  0  0
   -2.4448   -2.2863    0.0000 H   0  0  0  0  0  0  0  0  0  0  0  0
   -2.1532   -3.9069    0.0000 H   0  0  0  0  0  0  0  0  0  0  0  0
   -1.4767   -3.6057    0.0000 H   0  0  0  0  0  0  0  0  0  0  0  0
   -3.6850   -3.3411    0.0000 H   0  0  0  0  0  0  0  0  0  0  0  0
    2.2454   -2.2249    0.0000 H   0  0  0  0  0  0  0  0  0  0  0  0
  1  2  1  0  0  0  0
  3  2  2  0  0  0  0
  4  3  1  0  0  0  0
  4  5  1  0  0  0  0
  6  5  1  0  0  0  0
  7  6  1  0  0  0  0
  7  8  1  0  0  0  0
  9  7  1  0  0  0  0
  9 10  1  0  0  0  0
 10 11  1  0  0  0  0
 12  9  1  0  0  0  0
 13  4  1  0  0  0  0
 13 14  2  0  0  0  0
 15 13  1  0  0  0  0
 16 15  1  0  0  0  0
 16 17  2  0  0  0  0
  2 16  1  0  0  0  0
  5 12  1  0  0  0  0
  1 18  1  0  0  0  0
  1 19  1  0  0  0  0
  1 20  1  0  0  0  0
  3 21  1  0  0  0  0
  5 22  1  0  0  0  0
  6 23  1  0  0  0  0
  6 24  1  0  0  0  0
  7 25  1  0  0  0  0
  8 26  1  0  0  0  0
  9 27  1  0  0  0  0
 10 28  1  0  0  0  0
 10 29  1  0  0  0  0
 11 30  1  0  0  0  0
 15 31  1  0  0  0  0
M  END
>  <id_input>
5094

>  <InChIKey>
IQFYYKKMVGJFEH-UHFFFAOYSA-N

>  <substance_name>
thymidine

>  <casrn>
50-89-5

>  <Molecular weight>
242.2285614013672

>  <guideline>
EU Method B.4 (Acute Toxicity: Dermal Irritation / Corrosion)

>  <species>
rabbit

>  <type_of_coverage>
semiocclusive

>  <max_duration(hrs)>
4.0

>  <vehicle>
unchanged (no vehicle)

>  <edema/ erythema score>
0.553333333333333

>  <max_score>
4.0

>  <reversibility>
0.0

>  <Outcome>
0

>  <StandardizerResult>
Remove Explicit Hydrogens (ID: RemoveExplicitH)
Clear Stereo (ID: ClearStereo)
Wedge Clean (ID: WedgeClean)
Mesomerize (ID: Mesomerize)
Tautomerize (ID: Tautomerize)
Add Explicit Hydrogens (ID: AddExplicitH)
Neutralize (ID: Neutralize)
Clean 2D (ID: Clean2D)


$$$$

  Mrv1812 02121911042D          

 78 84  0  0  0  0            999 V2000
   -0.8447    1.6998    0.0000 Cl  0  0  0  0  0  0  0  0  0  0  0  0
   -1.5592    1.2873    0.0000 C   0  0  0  0  0  0  0  0  0  0  0  0
   -2.2737    1.6998    0.0000 C   0  0  0  0  0  0  0  0  0  0  0  0
   -2.9881    1.2873    0.0000 C   0  0  0  0  0  0  0  0  0  0  0  0
   -2.9881    0.4623    0.0000 C   0  0  0  0  0  0  0  0  0  0  0  0
   -3.7026    0.0498    0.0000 Cl  0  0  0  0  0  0  0  0  0  0  0  0
   -2.2737    0.0498    0.0000 C   0  0  0  0  0  0  0  0  0  0  0  0
   -2.2737   -0.7752    0.0000 N   0  0  0  0  0  0  0  0  0  0  0  0
   -1.5592   -1.1877    0.0000 N   0  0  0  0  0  0  0  0  0  0  0  0
   -1.5592   -2.0127    0.0000 C   0  0  0  0  0  0  0  0  0  0  0  0
   -0.8447   -2.4252    0.0000 C   0  0  0  0  0  0  0  0  0  0  0  0
   -0.1303   -2.0127    0.0000 O   0  0  0  0  0  0  0  0  0  0  0  0
   -0.8447   -3.2502    0.0000 C   0  0  0  0  0  0  0  0  0  0  0  0
   -1.5592   -3.6627    0.0000 C   0  0  0  0  0  0  0  0  0  0  0  0
   -2.2737   -3.2502    0.0000 C   0  0  0  0  0  0  0  0  0  0  0  0
   -2.9881   -3.6627    0.0000 C   0  0  0  0  0  0  0  0  0  0  0  0
   -3.7026   -3.2502    0.0000 C   0  0  0  0  0  0  0  0  0  0  0  0
   -3.7026   -2.4252    0.0000 C   0  0  0  0  0  0  0  0  0  0  0  0
   -2.9881   -2.0127    0.0000 C   0  0  0  0  0  0  0  0  0  0  0  0
   -2.2737   -2.4252    0.0000 C   0  0  0  0  0  0  0  0  0  0  0  0
   -0.1303   -3.6627    0.0000 C   0  0  0  0  0  0  0  0  0  0  0  0
    0.5842   -3.2502    0.0000 O   0  0  0  0  0  0  0  0  0  0  0  0
   -0.1303   -4.4877    0.0000 N   0  0  0  0  0  0  0  0  0  0  0  0
    0.5842   -4.9002    0.0000 C   0  0  0  0  0  0  0  0  0  0  0  0
    0.5842   -5.7252    0.0000 C   0  0  0  0  0  0  0  0  0  0  0  0
    1.2987   -6.1377    0.0000 C   0  0  0  0  0  0  0  0  0  0  0  0
    1.2987   -6.9627    0.0000 Cl  0  0  0  0  0  0  0  0  0  0  0  0
    2.0132   -5.7252    0.0000 C   0  0  0  0  0  0  0  0  0  0  0  0
    2.7276   -6.1377    0.0000 N   0  0  0  0  0  0  0  0  0  0  0  0
    2.7276   -6.9627    0.0000 C   0  0  0  0  0  0  0  0  0  0  0  0
    2.0132   -7.3752    0.0000 O   0  0  0  0  0  0  0  0  0  0  0  0
    3.4421   -7.3752    0.0000 C   0  0  0  0  0  0  0  0  0  0  0  0
    4.1566   -6.9627    0.0000 C   0  0  0  0  0  0  0  0  0  0  0  0
    4.8710   -7.3752    0.0000 C   0  0  0  0  0  0  0  0  0  0  0  0
    5.5855   -6.9627    0.0000 C   0  0  0  0  0  0  0  0  0  0  0  0
    6.3000   -7.3752    0.0000 C   0  0  0  0  0  0  0  0  0  0  0  0
    6.3000   -8.2002    0.0000 C   0  0  0  0  0  0  0  0  0  0  0  0
    5.5855   -8.6127    0.0000 C   0  0  0  0  0  0  0  0  0  0  0  0
    4.8710   -8.2002    0.0000 C   0  0  0  0  0  0  0  0  0  0  0  0
    4.1566   -8.6127    0.0000 C   0  0  0  0  0  0  0  0  0  0  0  0
    4.1566   -9.4377    0.0000 N   0  0  0  0  0  0  0  0  0  0  0  0
    3.4421   -9.8502    0.0000 N   0  0  0  0  0  0  0  0  0  0  0  0
    3.4421  -10.6752    0.0000 C   0  0  0  0  0  0  0  0  0  0  0  0
    2.7276  -11.0877    0.0000 C   0  0  0  0  0  0  0  0  0  0  0  0
    2.7276  -11.9127    0.0000 C   0  0  0  0  0  0  0  0  0  0  0  0
    2.0132  -12.3252    0.0000 Cl  0  0  0  0  0  0  0  0  0  0  0  0
    3.4421  -12.3252    0.0000 C   0  0  0  0  0  0  0  0  0  0  0  0
    4.1566  -11.9127    0.0000 C   0  0  0  0  0  0  0  0  0  0  0  0
    4.1566  -11.0877    0.0000 C   0  0  0  0  0  0  0  0  0  0  0  0
    4.8710  -10.6752    0.0000 Cl  0  0  0  0  0  0  0  0  0  0  0  0
    3.4421   -8.2002    0.0000 C   0  0  0  0  0  0  0  0  0  0  0  0
    2.7276   -8.6127    0.0000 O   0  0  0  0  0  0  0  0  0  0  0  0
    2.0132   -4.9002    0.0000 C   0  0  0  0  0  0  0  0  0  0  0  0
    1.2987   -4.4877    0.0000 C   0  0  0  0  0  0  0  0  0  0  0  0
    1.2987   -3.6627    0.0000 Cl  0  0  0  0  0  0  0  0  0  0  0  0
   -1.5592    0.4623    0.0000 C   0  0  0  0  0  0  0  0  0  0  0  0
   -2.2737    2.5248    0.0000 H   0  0  0  0  0  0  0  0  0  0  0  0
   -3.7026    1.6998    0.0000 H   0  0  0  0  0  0  0  0  0  0  0  0
    0.5842   -2.4252    0.0000 H   0  0  0  0  0  0  0  0  0  0  0  0
   -1.5592   -4.4877    0.0000 H   0  0  0  0  0  0  0  0  0  0  0  0
   -2.9881   -4.4877    0.0000 H   0  0  0  0  0  0  0  0  0  0  0  0
   -4.4171   -3.6627    0.0000 H   0  0  0  0  0  0  0  0  0  0  0  0
   -4.4171   -2.0127    0.0000 H   0  0  0  0  0  0  0  0  0  0  0  0
   -2.9881   -1.1877    0.0000 H   0  0  0  0  0  0  0  0  0  0  0  0
   -0.8447   -4.9002    0.0000 H   0  0  0  0  0  0  0  0  0  0  0  0
   -0.1303   -6.1377    0.0000 H   0  0  0  0  0  0  0  0  0  0  0  0
    3.4421   -5.7252    0.0000 H   0  0  0  0  0  0  0  0  0  0  0  0
    4.1566   -6.1377    0.0000 H   0  0  0  0  0  0  0  0  0  0  0  0
    5.5855   -6.1377    0.0000 H   0  0  0  0  0  0  0  0  0  0  0  0
    7.0145   -6.9627    0.0000 H   0  0  0  0  0  0  0  0  0  0  0  0
    7.0145   -8.6127    0.0000 H   0  0  0  0  0  0  0  0  0  0  0  0
    5.5855   -9.4377    0.0000 H   0  0  0  0  0  0  0  0  0  0  0  0
    2.0132  -10.6752    0.0000 H   0  0  0  0  0  0  0  0  0  0  0  0
    3.4421  -13.1502    0.0000 H   0  0  0  0  0  0  0  0  0  0  0  0
    4.8710  -12.3252    0.0000 H   0  0  0  0  0  0  0  0  0  0  0  0
    2.0132   -8.2002    0.0000 H   0  0  0  0  0  0  0  0  0  0  0  0
    2.7276   -4.4877    0.0000 H   0  0  0  0  0  0  0  0  0  0  0  0
   -0.8447    0.0498    0.0000 H   0  0  0  0  0  0  0  0  0  0  0  0
  1  2  1  0  0  0  0
  3  2  4  0  0  0  0
  4  3  4  0  0  0  0
  5  4  4  0  0  0  0
  5  6  1  0  0  0  0
  7  5  4  0  0  0  0
  8  7  1  4  0  0  0
  8  9  2  0  0  0  0
  9 10  1  0  0  0  0
 11 10  4  0  0  0  0
 11 12  1  0  0  0  0
 13 11  4  0  0  0  0
 14 13  4  0  0  0  0
 15 14  4  0  0  0  0
 15 16  4  0  0  0  0
 16 17  4  0  0  0  0
 17 18  4  0  0  0  0
 18 19  4  0  0  0  0
 19 20  4  0  0  0  0
 13 21  1  0  0  0  0
 21 22  2  0  0  0  0
 21 23  1  0  0  0  0
 23 24  1  0  0  0  0
 25 24  4  0  0  0  0
 26 25  4  0  0  0  0
 26 27  1  0  0  0  0
 28 26  4  0  0  0  0
 28 29  1  0  0  0  0
 29 30  1  0  0  0  0
 30 31  2  0  0  0  0
 30 32  1  0  0  0  0
 33 32  4  0  0  0  0
 34 33  4  0  0  0  0
 34 35  4  0  0  0  0
 35 36  4  0  0  0  0
 36 37  4  0  0  0  0
 37 38  4  0  0  0  0
 38 39  4  0  0  0  0
 40 39  4  0  0  0  0
 41 40  1  4  0  0  0
 41 42  2  0  0  0  0
 42 43  1  0  0  0  0
 44 43  4  0  0  0  0
 45 44  4  0  0  0  0
 45 46  1  0  0  0  0
 47 45  4  0  0  0  0
 48 47  4  0  0  0  0
 49 48  4  0  0  0  0
 49 50  1  0  0  0  0
 51 40  4  0  0  0  0
 51 52  1  0  0  0  0
 53 28  4  0  0  0  0
 54 53  4  0  0  0  0
 54 55  1  0  0  0  0
 56  7  4  0  0  0  0
  2 56  4  0  0  0  0
 10 20  4  0  0  0  0
 20 15  4  0  0  0  0
 24 54  4  0  0  0  0
 32 51  4  0  0  0  0
 39 34  4  0  0  0  0
 43 49  4  0  0  0  0
  3 57  1  0  0  0  0
  4 58  1  0  0  0  0
 12 59  1  0  0  0  0
 14 60  1  0  0  0  0
 16 61  1  0  0  0  0
 17 62  1  0  0  0  0
 18 63  1  0  0  0  0
 19 64  1  0  0  0  0
 23 65  1  0  0  0  0
 25 66  1  0  0  0  0
 29 67  1  0  0  0  0
 33 68  1  0  0  0  0
 35 69  1  0  0  0  0
 36 70  1  0  0  0  0
 37 71  1  0  0  0  0
 38 72  1  0  0  0  0
 44 73  1  0  0  0  0
 47 74  1  0  0  0  0
 48 75  1  0  0  0  0
 52 76  1  0  0  0  0
 53 77  1  0  0  0  0
 56 78  1  0  0  0  0
M  END
>  <id_input>
3426

>  <InChIKey>
BNOJIFCMRRONPS-UHFFFAOYSA-N

>  <substance_name>
N-(2,5-dichloro-4-{4-[(E)-2-(2,5-dichlorophenyl)diazen-1-yl]-3-hydroxynaphthalene-2-amido}phenyl)-4-[(E)-2-(2,5-dichlorophenyl)diazen-1-yl]-3-hydroxynaphthalene-2-carboxamide

>  <casrn>
40618-31-3

>  <Molecular weight>
863.3584594726562

>  <guideline>
OECD Guideline 404 (Acute Dermal Irritation / Corrosion)

>  <species>
rabbit

>  <type_of_coverage>
semiocclusive

>  <max_duration(hrs)>
4.0

>  <vehicle>
other: petrolatum oil (for moistening)

>  <edema/ erythema score>
0.0

>  <max_score>
4.0

>  <reversibility>
0.0

>  <Outcome>
0

>  <StandardizerResult>
Remove Explicit Hydrogens (ID: RemoveExplicitH)
Dearomatize (ID: Dearomatize)
Clear Stereo (ID: ClearStereo)
Wedge Clean (ID: WedgeClean)
Mesomerize (ID: Mesomerize)
Tautomerize (ID: Tautomerize)
Aromatize (ID: Aromatize)
Add Explicit Hydrogens (ID: AddExplicitH)
Neutralize (ID: Neutralize)
Clean 2D (ID: Clean2D)


$$$$

  Mrv1812 02121911042D          

 52 54  0  0  0  0            999 V2000
    2.2278    0.2038    0.0000 O   0  0  0  0  0  0  0  0  0  0  0  0
    1.4073    0.1175    0.0000 C   0  0  0  0  0  0  0  0  0  0  0  0
    1.0718   -0.6362    0.0000 C   0  0  0  0  0  0  0  0  0  0  0  0
    0.2513   -0.7224    0.0000 C   0  0  0  0  0  0  0  0  0  0  0  0
   -0.2336   -0.0550    0.0000 C   0  0  0  0  0  0  0  0  0  0  0  0
    0.1019    0.6987    0.0000 C   0  0  0  0  0  0  0  0  0  0  0  0
   -0.3830    1.3662    0.0000 O   0  0  0  0  0  0  0  0  0  0  0  0
    0.9224    0.7850    0.0000 C   0  0  0  0  0  0  0  0  0  0  0  0
    1.2580    1.5386    0.0000 C   0  0  0  0  0  0  0  0  0  0  0  0
    0.7731    2.2061    0.0000 O   0  0  0  0  0  0  0  0  0  0  0  0
    2.0785    1.6249    0.0000 C   0  0  0  0  0  0  0  0  0  0  0  0
    2.5634    0.9574    0.0000 C   0  0  0  0  0  0  0  0  0  0  0  0
    3.3839    1.0437    0.0000 C   0  0  0  0  0  0  0  0  0  0  0  0
    3.7194    1.7973    0.0000 C   0  0  0  0  0  0  0  0  0  0  0  0
    3.2345    2.4648    0.0000 C   0  0  0  0  0  0  0  0  0  0  0  0
    2.4140    2.3785    0.0000 C   0  0  0  0  0  0  0  0  0  0  0  0
    1.9291    3.0460    0.0000 Cl  0  0  0  0  0  0  0  0  0  0  0  0
    3.5701    3.2185    0.0000 C   0  0  0  0  0  0  0  0  0  0  0  0
    3.0851    3.8859    0.0000 O   0  0  0  0  0  0  0  0  0  0  0  0
    2.2646    3.7997    0.0000 C   0  0  0  0  0  0  0  0  0  0  0  0
    1.7797    4.4671    0.0000 C   0  0  0  0  0  0  0  0  0  0  0  0
    2.0347    5.2517    0.0000 O   0  0  0  0  0  0  0  0  0  0  0  0
    1.3672    5.7366    0.0000 C   0  0  0  0  0  0  0  0  0  0  0  0
    0.6998    5.2517    0.0000 C   0  0  0  0  0  0  0  0  0  0  0  0
    0.9547    4.4671    0.0000 C   0  0  0  0  0  0  0  0  0  0  0  0
    4.5399    1.8836    0.0000 S   0  0  0  0  0  0  0  0  0  0  0  0
    5.3604    1.9698    0.0000 O   0  0  0  0  0  0  0  0  0  0  0  0
    4.4537    2.7041    0.0000 O   0  0  0  0  0  0  0  0  0  0  0  0
    4.6261    1.0631    0.0000 C   0  0  0  0  0  0  0  0  0  0  0  0
    1.2056   -1.4502    0.0000 H   0  0  0  0  0  0  0  0  0  0  0  0
    1.8047   -1.0150    0.0000 H   0  0  0  0  0  0  0  0  0  0  0  0
   -0.3868   -1.2453    0.0000 H   0  0  0  0  0  0  0  0  0  0  0  0
    0.2897   -1.5465    0.0000 H   0  0  0  0  0  0  0  0  0  0  0  0
   -1.0055    0.2362    0.0000 H   0  0  0  0  0  0  0  0  0  0  0  0
   -0.9281   -0.5003    0.0000 H   0  0  0  0  0  0  0  0  0  0  0  0
    1.1086    2.9597    0.0000 H   0  0  0  0  0  0  0  0  0  0  0  0
    3.0483    0.2900    0.0000 H   0  0  0  0  0  0  0  0  0  0  0  0
    4.1375    0.7081    0.0000 H   0  0  0  0  0  0  0  0  0  0  0  0
    4.3420    2.9273    0.0000 H   0  0  0  0  0  0  0  0  0  0  0  0
    4.2646    3.6637    0.0000 H   0  0  0  0  0  0  0  0  0  0  0  0
    2.7496    3.1322    0.0000 H   0  0  0  0  0  0  0  0  0  0  0  0
    2.6002    4.5533    0.0000 H   0  0  0  0  0  0  0  0  0  0  0  0
    1.4052    3.7320    0.0000 H   0  0  0  0  0  0  0  0  0  0  0  0
    1.7545    6.4651    0.0000 H   0  0  0  0  0  0  0  0  0  0  0  0
    0.9799    6.4651    0.0000 H   0  0  0  0  0  0  0  0  0  0  0  0
    0.1267    5.8452    0.0000 H   0  0  0  0  0  0  0  0  0  0  0  0
   -0.1127    5.1085    0.0000 H   0  0  0  0  0  0  0  0  0  0  0  0
    0.1311    4.4203    0.0000 H   0  0  0  0  0  0  0  0  0  0  0  0
    0.3842    3.8711    0.0000 H   0  0  0  0  0  0  0  0  0  0  0  0
    4.7124    0.2426    0.0000 H   0  0  0  0  0  0  0  0  0  0  0  0
    5.3798    0.7275    0.0000 H   0  0  0  0  0  0  0  0  0  0  0  0
    5.2936    1.5480    0.0000 H   0  0  0  0  0  0  0  0  0  0  0  0
  1  2  2  0  0  0  0
  3  2  1  0  0  0  0
  4  3  1  0  0  0  0
  5  4  1  0  0  0  0
  6  5  1  0  0  0  0
  6  7  2  0  0  0  0
  8  6  1  0  0  0  0
  8  9  2  0  0  0  0
  9 10  1  0  0  0  0
  9 11  1  0  0  0  0
 12 11  4  0  0  0  0
 13 12  4  0  0  0  0
 14 13  4  0  0  0  0
 15 14  4  0  0  0  0
 16 15  4  0  0  0  0
 16 17  1  0  0  0  0
 15 18  1  0  0  0  0
 18 19  1  0  0  0  0
 19 20  1  0  0  0  0
 20 21  1  0  0  0  0
 22 21  1  0  0  0  0
 23 22  1  0  0  0  0
 24 23  1  0  0  0  0
 25 24  1  0  0  0  0
 14 26  1  0  0  0  0
 26 27  2  0  0  0  0
 26 28  2  0  0  0  0
 26 29  1  0  0  0  0
  2  8  1  0  0  0  0
 11 16  4  0  0  0  0
 21 25  1  0  0  0  0
  3 30  1  0  0  0  0
  3 31  1  0  0  0  0
  4 32  1  0  0  0  0
  4 33  1  0  0  0  0
  5 34  1  0  0  0  0
  5 35  1  0  0  0  0
 10 36  1  0  0  0  0
 12 37  1  0  0  0  0
 13 38  1  0  0  0  0
 18 39  1  0  0  0  0
 18 40  1  0  0  0  0
 20 41  1  0  0  0  0
 20 42  1  0  0  0  0
 21 43  1  0  0  0  0
 23 44  1  0  0  0  0
 23 45  1  0  0  0  0
 24 46  1  0  0  0  0
 24 47  1  0  0  0  0
 25 48  1  0  0  0  0
 25 49  1  0  0  0  0
 29 50  1  0  0  0  0
 29 51  1  0  0  0  0
 29 52  1  0  0  0  0
M  END
>  <id_input>
5401

>  <InChIKey>
OMQDSOISVUBCFO-UHFFFAOYSA-N

>  <substance_name>
unnamed [473278-76-1]

>  <casrn>
473278-76-1

>  <Molecular weight>
442.9104309082031

>  <guideline>
OECD Guideline 404 (Acute Dermal Irritation / Corrosion)

>  <species>
rabbit

>  <type_of_coverage>
semiocclusive

>  <max_duration(hrs)>
4.0

>  <vehicle>
other: substance was moistened with sterile water

>  <edema/ erythema score>
0.0

>  <max_score>
4.0

>  <reversibility>
0.0

>  <Outcome>
0

>  <StandardizerResult>
Remove Explicit Hydrogens (ID: RemoveExplicitH)
Dearomatize (ID: Dearomatize)
Clear Stereo (ID: ClearStereo)
Wedge Clean (ID: WedgeClean)
Mesomerize (ID: Mesomerize)
Tautomerize (ID: Tautomerize)
Aromatize (ID: Aromatize)
Add Explicit Hydrogens (ID: AddExplicitH)
Neutralize (ID: Neutralize)
Clean 2D (ID: Clean2D)


$$$$

  Mrv1812 02121911042D          

 45 46  0  0  0  0            999 V2000
   -7.5623   -1.5221    0.0000 C   0  0  0  0  0  0  0  0  0  0  0  0
   -6.8478   -1.1096    0.0000 C   0  0  0  0  0  0  0  0  0  0  0  0
   -6.1334   -1.5221    0.0000 C   0  0  0  0  0  0  0  0  0  0  0  0
   -5.4189   -1.1096    0.0000 C   0  0  0  0  0  0  0  0  0  0  0  0
   -4.7044   -1.5221    0.0000 C   0  0  0  0  0  0  0  0  0  0  0  0
   -3.9899   -1.1096    0.0000 C   0  0  0  0  0  0  0  0  0  0  0  0
   -3.9899   -0.2846    0.0000 C   0  0  0  0  0  0  0  0  0  0  0  0
   -3.2755   -1.5221    0.0000 O   0  0  0  0  0  0  0  0  0  0  0  0
   -2.5610   -1.1096    0.0000 C   0  0  0  0  0  0  0  0  0  0  0  0
   -2.5610   -0.2846    0.0000 O   0  0  0  0  0  0  0  0  0  0  0  0
   -1.8465   -1.5221    0.0000 C   0  0  0  0  0  0  0  0  0  0  0  0
   -1.1321   -1.1096    0.0000 O   0  0  0  0  0  0  0  0  0  0  0  0
   -0.4176   -1.5221    0.0000 C   0  0  0  0  0  0  0  0  0  0  0  0
    0.2969   -1.1096    0.0000 C   0  0  0  0  0  0  0  0  0  0  0  0
    1.0114   -1.5221    0.0000 C   0  0  0  0  0  0  0  0  0  0  0  0
    1.0114   -2.3471    0.0000 C   0  0  0  0  0  0  0  0  0  0  0  0
    1.7258   -2.7596    0.0000 Cl  0  0  0  0  0  0  0  0  0  0  0  0
    0.2969   -2.7596    0.0000 C   0  0  0  0  0  0  0  0  0  0  0  0
    0.2969   -3.5846    0.0000 C   0  0  0  0  0  0  0  0  0  0  0  0
   -0.4176   -3.9971    0.0000 C   0  0  0  0  0  0  0  0  0  0  0  0
   -1.1321   -3.5846    0.0000 C   0  0  0  0  0  0  0  0  0  0  0  0
   -1.1321   -2.7596    0.0000 N   0  0  0  0  0  0  0  0  0  0  0  0
   -0.4176   -2.3471    0.0000 C   0  0  0  0  0  0  0  0  0  0  0  0
   -7.9748   -0.8076    0.0000 H   0  0  0  0  0  0  0  0  0  0  0  0
   -8.2768   -1.9346    0.0000 H   0  0  0  0  0  0  0  0  0  0  0  0
   -7.1498   -2.2366    0.0000 H   0  0  0  0  0  0  0  0  0  0  0  0
   -6.4776   -0.3724    0.0000 H   0  0  0  0  0  0  0  0  0  0  0  0
   -7.2181   -0.3724    0.0000 H   0  0  0  0  0  0  0  0  0  0  0  0
   -6.5036   -2.2594    0.0000 H   0  0  0  0  0  0  0  0  0  0  0  0
   -5.7631   -2.2594    0.0000 H   0  0  0  0  0  0  0  0  0  0  0  0
   -5.0486   -0.3724    0.0000 H   0  0  0  0  0  0  0  0  0  0  0  0
   -5.7891   -0.3724    0.0000 H   0  0  0  0  0  0  0  0  0  0  0  0
   -5.0747   -2.2594    0.0000 H   0  0  0  0  0  0  0  0  0  0  0  0
   -4.3341   -2.2594    0.0000 H   0  0  0  0  0  0  0  0  0  0  0  0
   -4.7044   -0.6971    0.0000 H   0  0  0  0  0  0  0  0  0  0  0  0
   -3.1930   -0.4981    0.0000 H   0  0  0  0  0  0  0  0  0  0  0  0
   -3.5774    0.4299    0.0000 H   0  0  0  0  0  0  0  0  0  0  0  0
   -4.5733    0.2988    0.0000 H   0  0  0  0  0  0  0  0  0  0  0  0
   -2.2168   -2.2594    0.0000 H   0  0  0  0  0  0  0  0  0  0  0  0
   -1.4763   -2.2594    0.0000 H   0  0  0  0  0  0  0  0  0  0  0  0
    0.2969   -0.2846    0.0000 H   0  0  0  0  0  0  0  0  0  0  0  0
    1.7258   -1.1096    0.0000 H   0  0  0  0  0  0  0  0  0  0  0  0
    1.0114   -3.9971    0.0000 H   0  0  0  0  0  0  0  0  0  0  0  0
   -0.4176   -4.8221    0.0000 H   0  0  0  0  0  0  0  0  0  0  0  0
   -1.8465   -3.9971    0.0000 H   0  0  0  0  0  0  0  0  0  0  0  0
  1  2  1  0  0  0  0
  2  3  1  0  0  0  0
  3  4  1  0  0  0  0
  4  5  1  0  0  0  0
  5  6  1  0  0  0  0
  6  7  1  0  0  0  0
  6  8  1  0  0  0  0
  8  9  1  0  0  0  0
  9 10  2  0  0  0  0
  9 11  1  0  0  0  0
 11 12  1  0  0  0  0
 12 13  1  0  0  0  0
 14 13  4  0  0  0  0
 15 14  4  0  0  0  0
 16 15  4  0  0  0  0
 16 17  1  0  0  0  0
 18 16  4  0  0  0  0
 18 19  4  0  0  0  0
 19 20  4  0  0  0  0
 20 21  4  0  0  0  0
 21 22  4  0  0  0  0
 22 23  4  0  0  0  0
 13 23  4  0  0  0  0
 23 18  4  0  0  0  0
  1 24  1  0  0  0  0
  1 25  1  0  0  0  0
  1 26  1  0  0  0  0
  2 27  1  0  0  0  0
  2 28  1  0  0  0  0
  3 29  1  0  0  0  0
  3 30  1  0  0  0  0
  4 31  1  0  0  0  0
  4 32  1  0  0  0  0
  5 33  1  0  0  0  0
  5 34  1  0  0  0  0
  6 35  1  0  0  0  0
  7 36  1  0  0  0  0
  7 37  1  0  0  0  0
  7 38  1  0  0  0  0
 11 39  1  0  0  0  0
 11 40  1  0  0  0  0
 14 41  1  0  0  0  0
 15 42  1  0  0  0  0
 19 43  1  0  0  0  0
 20 44  1  0  0  0  0
 21 45  1  0  0  0  0
M  END
>  <id_input>
65, 5552

>  <InChIKey>
COYBRKAVBMYYSF-UHFFFAOYSA-N

>  <substance_name>
(2R)-heptan-2-yl 2-[(5-chloroquinolin-8-yl)oxy]acetate (2S)-heptan-2-yl 2-[(5-chloroquinolin-8-yl)oxy]acetate

>  <casrn>
99607-70-2

>  <Molecular weight>
335.8251953125

>  <guideline>
OECD Guideline 404 (Acute Dermal Irritation / Corrosion)

>  <species>
rabbit

>  <type_of_coverage>
occlusive

>  <max_duration(hrs)>
4.0

>  <vehicle>
other: site moistened with distilled water containing 0.5% CMC and 0.1% polysorbate 80

>  <edema/ erythema score>
0.22

>  <max_score>
4.0

>  <reversibility>
0.0

>  <Outcome>
0

>  <StandardizerResult>
Remove Explicit Hydrogens (ID: RemoveExplicitH)
Dearomatize (ID: Dearomatize)
Clear Stereo (ID: ClearStereo)
Wedge Clean (ID: WedgeClean)
Mesomerize (ID: Mesomerize)
Tautomerize (ID: Tautomerize)
Aromatize (ID: Aromatize)
Add Explicit Hydrogens (ID: AddExplicitH)
Neutralize (ID: Neutralize)
Clean 2D (ID: Clean2D)


$$$$

  Mrv1812 02121911042D          

 41 43  0  0  0  0            999 V2000
    2.6620    0.6015    0.0000 O   0  0  0  0  0  0  0  0  0  0  0  0
    1.9476    1.0140    0.0000 N   0  0  0  0  0  0  0  0  0  0  0  0
    1.9476    1.8390    0.0000 O   0  0  0  0  0  0  0  0  0  0  0  0
    1.2331    0.6015    0.0000 C   0  0  0  0  0  0  0  0  0  0  0  0
    0.5186    1.0140    0.0000 C   0  0  0  0  0  0  0  0  0  0  0  0
   -0.1958    0.6015    0.0000 C   0  0  0  0  0  0  0  0  0  0  0  0
   -0.1958   -0.2235    0.0000 C   0  0  0  0  0  0  0  0  0  0  0  0
    0.5186   -0.6360    0.0000 C   0  0  0  0  0  0  0  0  0  0  0  0
    1.2331   -0.2235    0.0000 C   0  0  0  0  0  0  0  0  0  0  0  0
    1.9476   -0.6360    0.0000 N   0  0  0  0  0  0  0  0  0  0  0  0
    1.9476   -1.4610    0.0000 C   0  0  0  0  0  0  0  0  0  0  0  0
    1.2331   -1.8735    0.0000 C   0  0  0  0  0  0  0  0  0  0  0  0
    1.2331   -2.6985    0.0000 C   0  0  0  0  0  0  0  0  0  0  0  0
    1.9476   -3.1110    0.0000 C   0  0  0  0  0  0  0  0  0  0  0  0
    2.6620   -2.6985    0.0000 C   0  0  0  0  0  0  0  0  0  0  0  0
    2.6620   -1.8735    0.0000 C   0  0  0  0  0  0  0  0  0  0  0  0
   -0.9103    1.0140    0.0000 S   0  0  0  0  0  0  0  0  0  0  0  0
   -0.4978    1.7285    0.0000 O   0  0  0  0  0  0  0  0  0  0  0  0
   -1.3228    0.2996    0.0000 O   0  0  0  0  0  0  0  0  0  0  0  0
   -1.6248    1.4265    0.0000 N   0  0  0  0  0  0  0  0  0  0  0  0
   -2.3393    1.0140    0.0000 C   0  0  0  0  0  0  0  0  0  0  0  0
   -3.0537    1.4265    0.0000 C   0  0  0  0  0  0  0  0  0  0  0  0
   -3.7682    1.0140    0.0000 C   0  0  0  0  0  0  0  0  0  0  0  0
   -3.7682    0.1890    0.0000 C   0  0  0  0  0  0  0  0  0  0  0  0
   -3.0537   -0.2235    0.0000 C   0  0  0  0  0  0  0  0  0  0  0  0
   -2.3393    0.1890    0.0000 C   0  0  0  0  0  0  0  0  0  0  0  0
    0.5186    1.8390    0.0000 H   0  0  0  0  0  0  0  0  0  0  0  0
   -0.9103   -0.6360    0.0000 H   0  0  0  0  0  0  0  0  0  0  0  0
    0.5186   -1.4610    0.0000 H   0  0  0  0  0  0  0  0  0  0  0  0
    2.6620   -0.2235    0.0000 H   0  0  0  0  0  0  0  0  0  0  0  0
    0.5186   -2.2860    0.0000 H   0  0  0  0  0  0  0  0  0  0  0  0
    0.8206   -3.4129    0.0000 H   0  0  0  0  0  0  0  0  0  0  0  0
    1.9476   -3.9360    0.0000 H   0  0  0  0  0  0  0  0  0  0  0  0
    3.3765   -3.1110    0.0000 H   0  0  0  0  0  0  0  0  0  0  0  0
    3.3765   -1.4610    0.0000 H   0  0  0  0  0  0  0  0  0  0  0  0
   -1.6248    2.2515    0.0000 H   0  0  0  0  0  0  0  0  0  0  0  0
   -3.0537    2.2515    0.0000 H   0  0  0  0  0  0  0  0  0  0  0  0
   -4.4827    1.4265    0.0000 H   0  0  0  0  0  0  0  0  0  0  0  0
   -4.4827   -0.2235    0.0000 H   0  0  0  0  0  0  0  0  0  0  0  0
   -3.0537   -1.0485    0.0000 H   0  0  0  0  0  0  0  0  0  0  0  0
   -1.6248   -0.2235    0.0000 H   0  0  0  0  0  0  0  0  0  0  0  0
  1  2  2  0  0  0  0
  2  3  2  0  0  0  0
  2  4  1  0  0  0  0
  5  4  4  0  0  0  0
  6  5  4  0  0  0  0
  7  6  4  0  0  0  0
  8  7  4  0  0  0  0
  9  8  4  0  0  0  0
  9 10  1  0  0  0  0
 10 11  1  0  0  0  0
 12 11  4  0  0  0  0
 13 12  4  0  0  0  0
 14 13  4  0  0  0  0
 15 14  4  0  0  0  0
 16 15  4  0  0  0  0
  6 17  1  0  0  0  0
 17 18  2  0  0  0  0
 17 19  2  0  0  0  0
 17 20  1  0  0  0  0
 20 21  1  0  0  0  0
 22 21  4  0  0  0  0
 23 22  4  0  0  0  0
 24 23  4  0  0  0  0
 25 24  4  0  0  0  0
 26 25  4  0  0  0  0
  4  9  4  0  0  0  0
 11 16  4  0  0  0  0
 21 26  4  0  0  0  0
  5 27  1  0  0  0  0
  7 28  1  0  0  0  0
  8 29  1  0  0  0  0
 10 30  1  0  0  0  0
 12 31  1  0  0  0  0
 13 32  1  0  0  0  0
 14 33  1  0  0  0  0
 15 34  1  0  0  0  0
 16 35  1  0  0  0  0
 20 36  1  0  0  0  0
 22 37  1  0  0  0  0
 23 38  1  0  0  0  0
 24 39  1  0  0  0  0
 25 40  1  0  0  0  0
 26 41  1  0  0  0  0
M  END
>  <id_input>
2787

>  <InChIKey>
BBFRYSKTTHYWQZ-UHFFFAOYSA-N

>  <substance_name>
3-nitro-N-phenyl-4-(phenylamino)benzene-1-sulfonamide

>  <casrn>
5124-25-4

>  <Molecular weight>
369.3944091796875

>  <guideline>
OECD Guideline 404 (Acute Dermal Irritation / Corrosion)

>  <species>
rabbit

>  <type_of_coverage>
semiocclusive

>  <max_duration(hrs)>
4.0

>  <vehicle>
unchanged (no vehicle)

>  <edema/ erythema score>
0.89

>  <max_score>
4.0

>  <reversibility>
0.0

>  <Outcome>
0

>  <StandardizerResult>
Remove Explicit Hydrogens (ID: RemoveExplicitH)
Dearomatize (ID: Dearomatize)
Clear Stereo (ID: ClearStereo)
Wedge Clean (ID: WedgeClean)
Mesomerize (ID: Mesomerize)
Tautomerize (ID: Tautomerize)
Aromatize (ID: Aromatize)
Add Explicit Hydrogens (ID: AddExplicitH)
Neutralize (ID: Neutralize)
Clean 2D (ID: Clean2D)


$$$$

  Mrv1812 02121911042D          

 42 43  0  0  0  0            999 V2000
    2.5369    1.7759    0.0000 C   0  0  0  0  0  0  0  0  0  0  0  0
    1.8224    2.1884    0.0000 O   0  0  0  0  0  0  0  0  0  0  0  0
    1.1080    1.7759    0.0000 C   0  0  0  0  0  0  0  0  0  0  0  0
    0.3935    2.1884    0.0000 C   0  0  0  0  0  0  0  0  0  0  0  0
   -0.3210    1.7759    0.0000 C   0  0  0  0  0  0  0  0  0  0  0  0
   -1.0355    2.1884    0.0000 C   0  0  0  0  0  0  0  0  0  0  0  0
   -1.7499    1.7759    0.0000 C   0  0  0  0  0  0  0  0  0  0  0  0
   -1.7499    0.9509    0.0000 C   0  0  0  0  0  0  0  0  0  0  0  0
   -1.0355    0.5384    0.0000 C   0  0  0  0  0  0  0  0  0  0  0  0
   -0.3210    0.9509    0.0000 C   0  0  0  0  0  0  0  0  0  0  0  0
    0.3935    0.5384    0.0000 C   0  0  0  0  0  0  0  0  0  0  0  0
    1.1080    0.9509    0.0000 O   0  0  0  0  0  0  0  0  0  0  0  0
    1.8224    0.5384    0.0000 C   0  0  0  0  0  0  0  0  0  0  0  0
    1.8224   -0.2866    0.0000 C   0  0  0  0  0  0  0  0  0  0  0  0
    2.5369   -0.6991    0.0000 C   0  0  0  0  0  0  0  0  0  0  0  0
    3.2514   -0.2866    0.0000 C   0  0  0  0  0  0  0  0  0  0  0  0
    3.2514    0.5384    0.0000 C   0  0  0  0  0  0  0  0  0  0  0  0
    2.5369    0.9509    0.0000 N   0  0  0  0  0  0  0  0  0  0  0  0
    3.9658    0.9509    0.0000 C   0  0  0  0  0  0  0  0  0  0  0  0
    4.6803    1.3634    0.0000 F   0  0  0  0  0  0  0  0  0  0  0  0
    4.3783    0.2364    0.0000 F   0  0  0  0  0  0  0  0  0  0  0  0
    3.5533    1.6654    0.0000 F   0  0  0  0  0  0  0  0  0  0  0  0
    0.3935    3.0134    0.0000 C   0  0  0  0  0  0  0  0  0  0  0  0
   -0.3210    3.4259    0.0000 O   0  0  0  0  0  0  0  0  0  0  0  0
    1.1080    3.4259    0.0000 O   0  0  0  0  0  0  0  0  0  0  0  0
    1.8224    3.0134    0.0000 C   0  0  0  0  0  0  0  0  0  0  0  0
    3.2514    1.3634    0.0000 H   0  0  0  0  0  0  0  0  0  0  0  0
    3.2514    2.1884    0.0000 H   0  0  0  0  0  0  0  0  0  0  0  0
    2.5369    2.6009    0.0000 H   0  0  0  0  0  0  0  0  0  0  0  0
    1.8224    1.3634    0.0000 H   0  0  0  0  0  0  0  0  0  0  0  0
   -1.0355    3.0134    0.0000 H   0  0  0  0  0  0  0  0  0  0  0  0
   -2.4644    2.1884    0.0000 H   0  0  0  0  0  0  0  0  0  0  0  0
   -2.4644    0.5384    0.0000 H   0  0  0  0  0  0  0  0  0  0  0  0
   -1.0355   -0.2866    0.0000 H   0  0  0  0  0  0  0  0  0  0  0  0
    0.0232   -0.1988    0.0000 H   0  0  0  0  0  0  0  0  0  0  0  0
    0.7637   -0.1988    0.0000 H   0  0  0  0  0  0  0  0  0  0  0  0
    1.1080   -0.6991    0.0000 H   0  0  0  0  0  0  0  0  0  0  0  0
    2.5369   -1.5241    0.0000 H   0  0  0  0  0  0  0  0  0  0  0  0
    3.9658   -0.6991    0.0000 H   0  0  0  0  0  0  0  0  0  0  0  0
    2.4544    3.5437    0.0000 H   0  0  0  0  0  0  0  0  0  0  0  0
    1.9657    3.8259    0.0000 H   0  0  0  0  0  0  0  0  0  0  0  0
    1.1080    2.6009    0.0000 H   0  0  0  0  0  0  0  0  0  0  0  0
  1  2  1  0  0  0  0
  3  2  1  4  0  0  0
  3  4  2  0  0  0  0
  4  5  1  0  0  0  0
  6  5  4  0  0  0  0
  7  6  4  0  0  0  0
  8  7  4  0  0  0  0
  9  8  4  0  0  0  0
 10  9  4  0  0  0  0
 10 11  1  0  0  0  0
 11 12  1  0  0  0  0
 12 13  1  0  0  0  0
 14 13  4  0  0  0  0
 15 14  4  0  0  0  0
 16 15  4  0  0  0  0
 17 16  4  0  0  0  0
 18 17  4  0  0  0  0
 17 19  1  0  0  0  0
 19 20  1  0  0  0  0
 19 21  1  0  0  0  0
 19 22  1  0  0  0  0
  4 23  1  0  0  0  0
 23 24  2  0  0  0  0
 23 25  1  0  0  0  0
 25 26  1  0  0  0  0
  5 10  4  0  0  0  0
 13 18  4  0  0  0  0
  1 27  1  0  0  0  0
  1 28  1  0  0  0  0
  1 29  1  0  0  0  0
  3 30  1  0  0  0  0
  6 31  1  0  0  0  0
  7 32  1  0  0  0  0
  8 33  1  0  0  0  0
  9 34  1  0  0  0  0
 11 35  1  0  0  0  0
 11 36  1  0  0  0  0
 14 37  1  0  0  0  0
 15 38  1  0  0  0  0
 16 39  1  0  0  0  0
 26 40  1  0  0  0  0
 26 41  1  0  0  0  0
 26 42  1  0  0  0  0
M  END
>  <id_input>
5247

>  <InChIKey>
IBSNKSODLGJUMQ-UHFFFAOYSA-N

>  <substance_name>
unnamed [117428-22-5]

>  <casrn>
117428-22-5

>  <Molecular weight>
367.31915283203125

>  <guideline>
OECD Guideline 404 (Acute Dermal Irritation / Corrosion)

>  <species>
rabbit

>  <type_of_coverage>
occlusive

>  <max_duration(hrs)>
4.0

>  <vehicle>
other: Deionised water

>  <edema/ erythema score>
0.2

>  <max_score>
4.0

>  <reversibility>
0.0

>  <Outcome>
0

>  <StandardizerResult>
Remove Explicit Hydrogens (ID: RemoveExplicitH)
Dearomatize (ID: Dearomatize)
Clear Stereo (ID: ClearStereo)
Wedge Clean (ID: WedgeClean)
Mesomerize (ID: Mesomerize)
Tautomerize (ID: Tautomerize)
Aromatize (ID: Aromatize)
Add Explicit Hydrogens (ID: AddExplicitH)
Neutralize (ID: Neutralize)
Clean 2D (ID: Clean2D)


$$$$

  Mrv1812 02121911042D          

 58 59  0  0  0  0            999 V2000
   -3.6627    1.6062    0.0000 O   0  0  0  0  0  0  0  0  0  0  0  0
   -2.8781    1.3513    0.0000 C   0  0  0  0  0  0  0  0  0  0  0  0
   -2.1636    1.7638    0.0000 C   0  0  0  0  0  0  0  0  0  0  0  0
   -1.4492    1.3513    0.0000 C   0  0  0  0  0  0  0  0  0  0  0  0
   -1.1670    2.1265    0.0000 C   0  0  0  0  0  0  0  0  0  0  0  0
   -0.8848    2.9018    0.0000 C   0  0  0  0  0  0  0  0  0  0  0  0
   -0.6027    3.6770    0.0000 C   0  0  0  0  0  0  0  0  0  0  0  0
   -0.3205    4.4522    0.0000 O   0  0  0  0  0  0  0  0  0  0  0  0
    0.4920    4.5955    0.0000 C   0  0  0  0  0  0  0  0  0  0  0  0
    0.7741    5.3708    0.0000 O   0  0  0  0  0  0  0  0  0  0  0  0
    0.2438    6.0027    0.0000 C   0  0  0  0  0  0  0  0  0  0  0  0
    0.5260    6.7780    0.0000 C   0  0  0  0  0  0  0  0  0  0  0  0
    1.0223    3.9635    0.0000 C   0  0  0  0  0  0  0  0  0  0  0  0
   -1.3779    3.9592    0.0000 C   0  0  0  0  0  0  0  0  0  0  0  0
   -1.5212    4.7716    0.0000 C   0  0  0  0  0  0  0  0  0  0  0  0
    0.1726    3.3948    0.0000 C   0  0  0  0  0  0  0  0  0  0  0  0
   -0.6367    1.2080    0.0000 O   0  0  0  0  0  0  0  0  0  0  0  0
   -1.4492    0.5263    0.0000 C   0  0  0  0  0  0  0  0  0  0  0  0
   -2.1636    0.1138    0.0000 C   0  0  0  0  0  0  0  0  0  0  0  0
   -2.8781    0.5263    0.0000 C   0  0  0  0  0  0  0  0  0  0  0  0
   -3.6627    0.2713    0.0000 O   0  0  0  0  0  0  0  0  0  0  0  0
   -4.1476    0.9388    0.0000 C   0  0  0  0  0  0  0  0  0  0  0  0
   -4.9726    0.9388    0.0000 C   0  0  0  0  0  0  0  0  0  0  0  0
   -0.6247    0.4975    0.0000 C   0  0  0  0  0  0  0  0  0  0  0  0
   -1.0120   -0.1734    0.0000 C   0  0  0  0  0  0  0  0  0  0  0  0
   -2.1636    2.5888    0.0000 C   0  0  0  0  0  0  0  0  0  0  0  0
   -0.0383    5.2275    0.0000 H   0  0  0  0  0  0  0  0  0  0  0  0
   -0.3881    6.5330    0.0000 H   0  0  0  0  0  0  0  0  0  0  0  0
   -0.5812    6.0027    0.0000 H   0  0  0  0  0  0  0  0  0  0  0  0
    1.2120    6.3196    0.0000 H   0  0  0  0  0  0  0  0  0  0  0  0
    1.1343    7.3353    0.0000 H   0  0  0  0  0  0  0  0  0  0  0  0
    0.1292    7.5013    0.0000 H   0  0  0  0  0  0  0  0  0  0  0  0
    0.3903    3.4332    0.0000 H   0  0  0  0  0  0  0  0  0  0  0  0
    1.5526    3.3315    0.0000 H   0  0  0  0  0  0  0  0  0  0  0  0
    1.6543    4.4938    0.0000 H   0  0  0  0  0  0  0  0  0  0  0  0
   -2.0099    3.4289    0.0000 H   0  0  0  0  0  0  0  0  0  0  0  0
   -0.8892    5.3019    0.0000 H   0  0  0  0  0  0  0  0  0  0  0  0
   -2.2964    5.0538    0.0000 H   0  0  0  0  0  0  0  0  0  0  0  0
   -0.2190    2.6687    0.0000 H   0  0  0  0  0  0  0  0  0  0  0  0
    0.4321    2.6117    0.0000 H   0  0  0  0  0  0  0  0  0  0  0  0
    0.2445    4.2167    0.0000 H   0  0  0  0  0  0  0  0  0  0  0  0
   -0.0092    1.7436    0.0000 H   0  0  0  0  0  0  0  0  0  0  0  0
   -2.5339   -0.6235    0.0000 H   0  0  0  0  0  0  0  0  0  0  0  0
   -1.7934   -0.6235    0.0000 H   0  0  0  0  0  0  0  0  0  0  0  0
   -2.1636    0.9388    0.0000 H   0  0  0  0  0  0  0  0  0  0  0  0
   -4.5222    0.2037    0.0000 H   0  0  0  0  0  0  0  0  0  0  0  0
   -4.7643    1.7370    0.0000 H   0  0  0  0  0  0  0  0  0  0  0  0
   -5.6924    1.3419    0.0000 H   0  0  0  0  0  0  0  0  0  0  0  0
   -5.5444    0.3441    0.0000 H   0  0  0  0  0  0  0  0  0  0  0  0
   -0.3057   -0.2634    0.0000 H   0  0  0  0  0  0  0  0  0  0  0  0
    0.1740    0.2907    0.0000 H   0  0  0  0  0  0  0  0  0  0  0  0
    0.0234    1.0080    0.0000 H   0  0  0  0  0  0  0  0  0  0  0  0
   -1.1900   -0.9790    0.0000 H   0  0  0  0  0  0  0  0  0  0  0  0
   -0.5371   -0.8480    0.0000 H   0  0  0  0  0  0  0  0  0  0  0  0
   -1.8124    0.0266    0.0000 H   0  0  0  0  0  0  0  0  0  0  0  0
   -2.9030    2.9548    0.0000 H   0  0  0  0  0  0  0  0  0  0  0  0
   -2.9568    2.3618    0.0000 H   0  0  0  0  0  0  0  0  0  0  0  0
   -1.3420    2.5142    0.0000 H   0  0  0  0  0  0  0  0  0  0  0  0
  2  1  1  0  0  0  0
  2  3  2  0  0  0  0
  3  4  1  0  0  0  0
  4  5  1  0  0  0  0
  5  6  3  0  0  0  0
  6  7  1  0  0  0  0
  7  8  1  0  0  0  0
  8  9  1  0  0  0  0
  9 10  1  0  0  0  0
 10 11  1  0  0  0  0
 11 12  1  0  0  0  0
  9 13  1  0  0  0  0
 14  7  1  4  0  0  0
 14 15  2  0  0  0  0
  7 16  1  0  0  0  0
  4 17  1  0  0  0  0
  4 18  1  0  0  0  0
 18 19  1  0  0  0  0
 19 20  1  0  0  0  0
 21 20  1  0  0  0  0
 22 21  1  0  0  0  0
 22 23  1  0  0  0  0
 18 24  1  0  0  0  0
 18 25  1  0  0  0  0
  3 26  1  0  0  0  0
  1 22  1  0  0  0  0
 20  2  1  0  0  0  0
  9 27  1  0  0  0  0
 11 28  1  0  0  0  0
 11 29  1  0  0  0  0
 12 30  1  0  0  0  0
 12 31  1  0  0  0  0
 12 32  1  0  0  0  0
 13 33  1  0  0  0  0
 13 34  1  0  0  0  0
 13 35  1  0  0  0  0
 14 36  1  0  0  0  0
 15 37  1  0  0  0  0
 15 38  1  0  0  0  0
 16 39  1  0  0  0  0
 16 40  1  0  0  0  0
 16 41  1  0  0  0  0
 17 42  1  0  0  0  0
 19 43  1  0  0  0  0
 19 44  1  0  0  0  0
 20 45  1  0  0  0  0
 22 46  1  0  0  0  0
 23 47  1  0  0  0  0
 23 48  1  0  0  0  0
 23 49  1  0  0  0  0
 24 50  1  0  0  0  0
 24 51  1  0  0  0  0
 24 52  1  0  0  0  0
 25 53  1  0  0  0  0
 25 54  1  0  0  0  0
 25 55  1  0  0  0  0
 26 56  1  0  0  0  0
 26 57  1  0  0  0  0
 26 58  1  0  0  0  0
M  END
>  <id_input>
439

>  <InChIKey>
RZEIWRMMULENKX-UHFFFAOYSA-N

>  <substance_name>
-

>  <casrn>
162691-59-0

>  <Molecular weight>
364.4757995605469

>  <guideline>
OECD Guideline 404 (Acute Dermal Irritation / Corrosion)

>  <species>
rabbit

>  <type_of_coverage>
semiocclusive

>  <max_duration(hrs)>
4.0

>  <vehicle>
unchanged (no vehicle)

>  <edema/ erythema score>
0.666666666666666

>  <max_score>
4.0

>  <reversibility>
0.0

>  <Outcome>
0

>  <StandardizerResult>
Remove Explicit Hydrogens (ID: RemoveExplicitH)
Clear Stereo (ID: ClearStereo)
Wedge Clean (ID: WedgeClean)
Mesomerize (ID: Mesomerize)
Tautomerize (ID: Tautomerize)
Add Explicit Hydrogens (ID: AddExplicitH)
Neutralize (ID: Neutralize)
Clean 2D (ID: Clean2D)


$$$$

  Mrv1812 02121911042D          

 35 35  0  0  0  0            999 V2000
    0.7948    2.2927    0.0000 C   0  0  0  0  0  0  0  0  0  0  0  0
    0.7948    1.4677    0.0000 O   0  0  0  0  0  0  0  0  0  0  0  0
    0.0803    1.0552    0.0000 C   0  0  0  0  0  0  0  0  0  0  0  0
   -0.6341    1.4677    0.0000 C   0  0  0  0  0  0  0  0  0  0  0  0
   -1.3486    1.0552    0.0000 C   0  0  0  0  0  0  0  0  0  0  0  0
   -1.3486    0.2302    0.0000 C   0  0  0  0  0  0  0  0  0  0  0  0
   -2.0631   -0.1823    0.0000 C   0  0  0  0  0  0  0  0  0  0  0  0
   -0.6341   -0.1823    0.0000 C   0  0  0  0  0  0  0  0  0  0  0  0
    0.0803    0.2302    0.0000 C   0  0  0  0  0  0  0  0  0  0  0  0
    0.7948   -0.1823    0.0000 N   0  0  0  0  0  0  0  0  0  0  0  0
    1.5093    0.2302    0.0000 C   0  0  0  0  0  0  0  0  0  0  0  0
    1.5093    1.0552    0.0000 O   0  0  0  0  0  0  0  0  0  0  0  0
    2.2238   -0.1823    0.0000 C   0  0  0  0  0  0  0  0  0  0  0  0
    2.9382    0.2302    0.0000 C   0  0  0  0  0  0  0  0  0  0  0  0
    2.9382    1.0552    0.0000 C   0  0  0  0  0  0  0  0  0  0  0  0
    3.6527   -0.1823    0.0000 O   0  0  0  0  0  0  0  0  0  0  0  0
   -2.0631    1.4677    0.0000 S   0  0  0  0  0  0  0  0  0  0  0  0
   -2.7775    1.8802    0.0000 O   0  0  0  0  0  0  0  0  0  0  0  0
   -1.6506    2.1821    0.0000 O   0  0  0  0  0  0  0  0  0  0  0  0
   -2.4756    0.7532    0.0000 O   0  0  0  0  0  0  0  0  0  0  0  0
    1.6198    2.2927    0.0000 H   0  0  0  0  0  0  0  0  0  0  0  0
    0.7948    3.1177    0.0000 H   0  0  0  0  0  0  0  0  0  0  0  0
   -0.0302    2.2927    0.0000 H   0  0  0  0  0  0  0  0  0  0  0  0
   -0.6341    2.2927    0.0000 H   0  0  0  0  0  0  0  0  0  0  0  0
   -2.4756    0.5321    0.0000 H   0  0  0  0  0  0  0  0  0  0  0  0
   -2.7775   -0.5948    0.0000 H   0  0  0  0  0  0  0  0  0  0  0  0
   -1.6506   -0.8968    0.0000 H   0  0  0  0  0  0  0  0  0  0  0  0
   -0.6341   -1.0073    0.0000 H   0  0  0  0  0  0  0  0  0  0  0  0
    0.7948   -1.0073    0.0000 H   0  0  0  0  0  0  0  0  0  0  0  0
    1.8535   -0.9196    0.0000 H   0  0  0  0  0  0  0  0  0  0  0  0
    2.5940   -0.9196    0.0000 H   0  0  0  0  0  0  0  0  0  0  0  0
    3.7632    1.0552    0.0000 H   0  0  0  0  0  0  0  0  0  0  0  0
    2.9382    1.8802    0.0000 H   0  0  0  0  0  0  0  0  0  0  0  0
    2.1132    1.0552    0.0000 H   0  0  0  0  0  0  0  0  0  0  0  0
   -2.7775    2.7052    0.0000 H   0  0  0  0  0  0  0  0  0  0  0  0
  1  2  1  0  0  0  0
  2  3  1  0  0  0  0
  4  3  4  0  0  0  0
  5  4  4  0  0  0  0
  6  5  4  0  0  0  0
  6  7  1  0  0  0  0
  8  6  4  0  0  0  0
  9  8  4  0  0  0  0
  9 10  1  0  0  0  0
 10 11  1  0  0  0  0
 11 12  2  0  0  0  0
 11 13  1  0  0  0  0
 13 14  1  0  0  0  0
 14 15  1  0  0  0  0
 14 16  2  0  0  0  0
  5 17  1  0  0  0  0
 17 18  1  0  0  0  0
 17 19  2  0  0  0  0
 17 20  2  0  0  0  0
  3  9  4  0  0  0  0
  1 21  1  0  0  0  0
  1 22  1  0  0  0  0
  1 23  1  0  0  0  0
  4 24  1  0  0  0  0
  7 25  1  0  0  0  0
  7 26  1  0  0  0  0
  7 27  1  0  0  0  0
  8 28  1  0  0  0  0
 10 29  1  0  0  0  0
 13 30  1  0  0  0  0
 13 31  1  0  0  0  0
 15 32  1  0  0  0  0
 15 33  1  0  0  0  0
 15 34  1  0  0  0  0
 18 35  1  0  0  0  0
M  END
>  <id_input>
3860

>  <InChIKey>
YTSYXEDYBAQECZ-UHFFFAOYSA-N

>  <substance_name>
ammonium 4-(acetoacetylamino)-5-methoxy-2-methylbenzenesulfonate

>  <casrn>
72705-22-7

>  <Molecular weight>
300.3076477050781

>  <guideline>
OECD Guideline 404 (Acute Dermal Irritation / Corrosion)

>  <species>
rabbit

>  <type_of_coverage>
semiocclusive

>  <max_duration(hrs)>
4.0

>  <vehicle>
physiological saline

>  <edema/ erythema score>
0.33

>  <max_score>
4.0

>  <reversibility>
0.0

>  <Outcome>
0

>  <StandardizerResult>
Remove Explicit Hydrogens (ID: RemoveExplicitH)
Dearomatize (ID: Dearomatize)
Clear Stereo (ID: ClearStereo)
Wedge Clean (ID: WedgeClean)
Mesomerize (ID: Mesomerize)
Tautomerize (ID: Tautomerize)
Aromatize (ID: Aromatize)
Add Explicit Hydrogens (ID: AddExplicitH)
Neutralize (ID: Neutralize)
Clean 2D (ID: Clean2D)


$$$$

  Mrv1812 02121911042D          

 38 40  0  0  0  0            999 V2000
    1.9317   -0.8741    0.0000 S   0  0  0  0  0  0  0  0  0  0  0  0
    1.2032   -0.4867    0.0000 C   0  0  0  0  0  0  0  0  0  0  0  0
    1.0884    0.3302    0.0000 N   0  0  0  0  0  0  0  0  0  0  0  0
    0.2759    0.4735    0.0000 C   0  0  0  0  0  0  0  0  0  0  0  0
   -0.1114   -0.2549    0.0000 N   0  0  0  0  0  0  0  0  0  0  0  0
    0.4617   -0.8484    0.0000 N   0  0  0  0  0  0  0  0  0  0  0  0
    0.3185   -1.6609    0.0000 C   0  0  0  0  0  0  0  0  0  0  0  0
   -0.4568   -1.9430    0.0000 C   0  0  0  0  0  0  0  0  0  0  0  0
   -0.7389   -1.1678    0.0000 O   0  0  0  0  0  0  0  0  0  0  0  0
   -0.1746   -2.7183    0.0000 C   0  0  0  0  0  0  0  0  0  0  0  0
    0.6379   -2.8615    0.0000 C   0  0  0  0  0  0  0  0  0  0  0  0
    0.9200   -3.6368    0.0000 C   0  0  0  0  0  0  0  0  0  0  0  0
    1.7325   -3.7800    0.0000 C   0  0  0  0  0  0  0  0  0  0  0  0
    2.2628   -3.1481    0.0000 C   0  0  0  0  0  0  0  0  0  0  0  0
    1.9806   -2.3728    0.0000 C   0  0  0  0  0  0  0  0  0  0  0  0
    1.1682   -2.2296    0.0000 C   0  0  0  0  0  0  0  0  0  0  0  0
    0.8860   -1.4543    0.0000 Cl  0  0  0  0  0  0  0  0  0  0  0  0
   -1.2320   -2.2252    0.0000 C   0  0  0  0  0  0  0  0  0  0  0  0
   -1.0888   -3.0377    0.0000 Cl  0  0  0  0  0  0  0  0  0  0  0  0
   -1.6445   -1.5107    0.0000 C   0  0  0  0  0  0  0  0  0  0  0  0
   -2.0570   -2.2252    0.0000 C   0  0  0  0  0  0  0  0  0  0  0  0
    1.6819    0.9033    0.0000 H   0  0  0  0  0  0  0  0  0  0  0  0
    0.3047    1.2980    0.0000 H   0  0  0  0  0  0  0  0  0  0  0  0
   -0.3915    0.9584    0.0000 H   0  0  0  0  0  0  0  0  0  0  0  0
   -0.9283   -0.3698    0.0000 H   0  0  0  0  0  0  0  0  0  0  0  0
    0.3185   -2.4859    0.0000 H   0  0  0  0  0  0  0  0  0  0  0  0
    0.8488   -2.2929    0.0000 H   0  0  0  0  0  0  0  0  0  0  0  0
    0.0514   -0.9311    0.0000 H   0  0  0  0  0  0  0  0  0  0  0  0
   -0.4635   -3.4911    0.0000 H   0  0  0  0  0  0  0  0  0  0  0  0
    0.2348   -3.4345    0.0000 H   0  0  0  0  0  0  0  0  0  0  0  0
    0.7313   -4.4399    0.0000 H   0  0  0  0  0  0  0  0  0  0  0  0
    2.0147   -4.5553    0.0000 H   0  0  0  0  0  0  0  0  0  0  0  0
    3.0753   -3.2913    0.0000 H   0  0  0  0  0  0  0  0  0  0  0  0
    2.5109   -1.7408    0.0000 H   0  0  0  0  0  0  0  0  0  0  0  0
   -1.8720   -0.7177    0.0000 H   0  0  0  0  0  0  0  0  0  0  0  0
   -2.3906   -1.1586    0.0000 H   0  0  0  0  0  0  0  0  0  0  0  0
   -2.8806   -2.1772    0.0000 H   0  0  0  0  0  0  0  0  0  0  0  0
   -2.4273   -2.9624    0.0000 H   0  0  0  0  0  0  0  0  0  0  0  0
  1  2  2  0  0  0  0
  3  2  1  0  0  0  0
  4  3  1  0  0  0  0
  5  4  1  0  0  0  0
  6  5  1  0  0  0  0
  6  7  1  0  0  0  0
  7  8  1  0  0  0  0
  8  9  1  0  0  0  0
  8 10  1  0  0  0  0
 10 11  1  0  0  0  0
 12 11  4  0  0  0  0
 13 12  4  0  0  0  0
 14 13  4  0  0  0  0
 15 14  4  0  0  0  0
 16 15  4  0  0  0  0
 16 17  1  0  0  0  0
  8 18  1  0  0  0  0
 18 19  1  0  0  0  0
 20 18  1  0  0  0  0
 21 20  1  0  0  0  0
  2  6  1  0  0  0  0
 11 16  4  0  0  0  0
 18 21  1  0  0  0  0
  3 22  1  0  0  0  0
  4 23  1  0  0  0  0
  4 24  1  0  0  0  0
  5 25  1  0  0  0  0
  7 26  1  0  0  0  0
  7 27  1  0  0  0  0
  9 28  1  0  0  0  0
 10 29  1  0  0  0  0
 10 30  1  0  0  0  0
 12 31  1  0  0  0  0
 13 32  1  0  0  0  0
 14 33  1  0  0  0  0
 15 34  1  0  0  0  0
 20 35  1  0  0  0  0
 20 36  1  0  0  0  0
 21 37  1  0  0  0  0
 21 38  1  0  0  0  0
M  END
>  <id_input>
400

>  <InChIKey>
PCARSQBZDYOIPU-UHFFFAOYSA-N

>  <substance_name>
-

>  <casrn>
222408-90-4

>  <Molecular weight>
346.2752685546875

>  <guideline>
EU Method B.4 (Acute Toxicity: Dermal Irritation / Corrosion)

>  <species>
rabbit

>  <type_of_coverage>
semiocclusive

>  <max_duration(hrs)>
4.0

>  <vehicle>
water

>  <edema/ erythema score>
0.0

>  <max_score>
0.0

>  <reversibility>
0.0

>  <Outcome>
0

>  <StandardizerResult>
Remove Explicit Hydrogens (ID: RemoveExplicitH)
Dearomatize (ID: Dearomatize)
Clear Stereo (ID: ClearStereo)
Wedge Clean (ID: WedgeClean)
Mesomerize (ID: Mesomerize)
Tautomerize (ID: Tautomerize)
Aromatize (ID: Aromatize)
Add Explicit Hydrogens (ID: AddExplicitH)
Neutralize (ID: Neutralize)
Clean 2D (ID: Clean2D)


$$$$

  Mrv1812 02121911042D          

 68 73  0  0  0  0            999 V2000
    2.5524    4.1869    0.0000 C   0  0  0  0  0  0  0  0  0  0  0  0
    2.0675    4.8544    0.0000 C   0  0  0  0  0  0  0  0  0  0  0  0
    2.3224    5.6390    0.0000 N   0  0  0  0  0  0  0  0  0  0  0  0
    1.6550    6.1239    0.0000 N   0  0  0  0  0  0  0  0  0  0  0  0
    0.9875    5.6390    0.0000 C   0  0  0  0  0  0  0  0  0  0  0  0
    0.2029    5.8939    0.0000 O   0  0  0  0  0  0  0  0  0  0  0  0
    1.2425    4.8544    0.0000 C   0  0  0  0  0  0  0  0  0  0  0  0
    0.7575    4.1869    0.0000 N   0  0  0  0  0  0  0  0  0  0  0  0
    1.0931    3.4332    0.0000 N   0  0  0  0  0  0  0  0  0  0  0  0
    0.6082    2.7658    0.0000 C   0  0  0  0  0  0  0  0  0  0  0  0
   -0.2123    2.8520    0.0000 C   0  0  0  0  0  0  0  0  0  0  0  0
   -0.6972    2.1846    0.0000 C   0  0  0  0  0  0  0  0  0  0  0  0
   -0.3617    1.4309    0.0000 C   0  0  0  0  0  0  0  0  0  0  0  0
    0.4588    1.3447    0.0000 C   0  0  0  0  0  0  0  0  0  0  0  0
    0.9437    2.0121    0.0000 C   0  0  0  0  0  0  0  0  0  0  0  0
    1.7642    1.9259    0.0000 Cl  0  0  0  0  0  0  0  0  0  0  0  0
   -0.8466    0.7635    0.0000 C   0  0  0  0  0  0  0  0  0  0  0  0
   -1.6671    0.8497    0.0000 C   0  0  0  0  0  0  0  0  0  0  0  0
   -2.1520    0.1823    0.0000 C   0  0  0  0  0  0  0  0  0  0  0  0
   -1.8164   -0.5714    0.0000 C   0  0  0  0  0  0  0  0  0  0  0  0
   -2.3014   -1.2388    0.0000 N   0  0  0  0  0  0  0  0  0  0  0  0
   -1.9658   -1.9925    0.0000 N   0  0  0  0  0  0  0  0  0  0  0  0
   -2.4507   -2.6599    0.0000 C   0  0  0  0  0  0  0  0  0  0  0  0
   -3.2757   -2.6599    0.0000 C   0  0  0  0  0  0  0  0  0  0  0  0
   -3.5307   -3.4446    0.0000 N   0  0  0  0  0  0  0  0  0  0  0  0
   -2.8632   -3.9295    0.0000 N   0  0  0  0  0  0  0  0  0  0  0  0
   -2.1958   -3.4446    0.0000 C   0  0  0  0  0  0  0  0  0  0  0  0
   -1.4112   -3.6995    0.0000 O   0  0  0  0  0  0  0  0  0  0  0  0
   -2.8632   -4.7545    0.0000 C   0  0  0  0  0  0  0  0  0  0  0  0
   -3.5777   -5.1670    0.0000 C   0  0  0  0  0  0  0  0  0  0  0  0
   -3.5777   -5.9920    0.0000 C   0  0  0  0  0  0  0  0  0  0  0  0
   -2.8632   -6.4045    0.0000 C   0  0  0  0  0  0  0  0  0  0  0  0
   -2.1488   -5.9920    0.0000 C   0  0  0  0  0  0  0  0  0  0  0  0
   -2.1488   -5.1670    0.0000 C   0  0  0  0  0  0  0  0  0  0  0  0
   -3.7606   -1.9925    0.0000 C   0  0  0  0  0  0  0  0  0  0  0  0
   -0.9960   -0.6576    0.0000 C   0  0  0  0  0  0  0  0  0  0  0  0
   -0.6604   -1.4113    0.0000 Cl  0  0  0  0  0  0  0  0  0  0  0  0
   -0.5110    0.0098    0.0000 C   0  0  0  0  0  0  0  0  0  0  0  0
    1.6550    6.9489    0.0000 C   0  0  0  0  0  0  0  0  0  0  0  0
    2.3694    7.3614    0.0000 C   0  0  0  0  0  0  0  0  0  0  0  0
    2.3694    8.1864    0.0000 C   0  0  0  0  0  0  0  0  0  0  0  0
    1.6550    8.5989    0.0000 C   0  0  0  0  0  0  0  0  0  0  0  0
    0.9405    8.1864    0.0000 C   0  0  0  0  0  0  0  0  0  0  0  0
    0.9405    7.3614    0.0000 C   0  0  0  0  0  0  0  0  0  0  0  0
    1.8849    3.7020    0.0000 H   0  0  0  0  0  0  0  0  0  0  0  0
    3.0373    3.5195    0.0000 H   0  0  0  0  0  0  0  0  0  0  0  0
    3.2198    4.6718    0.0000 H   0  0  0  0  0  0  0  0  0  0  0  0
    1.5824    2.7690    0.0000 H   0  0  0  0  0  0  0  0  0  0  0  0
   -0.5479    3.6057    0.0000 H   0  0  0  0  0  0  0  0  0  0  0  0
   -1.5177    2.2708    0.0000 H   0  0  0  0  0  0  0  0  0  0  0  0
    0.7944    0.5910    0.0000 H   0  0  0  0  0  0  0  0  0  0  0  0
   -2.0026    1.6034    0.0000 H   0  0  0  0  0  0  0  0  0  0  0  0
   -2.9725    0.2685    0.0000 H   0  0  0  0  0  0  0  0  0  0  0  0
   -3.1218   -1.1526    0.0000 H   0  0  0  0  0  0  0  0  0  0  0  0
   -4.2922   -4.7545    0.0000 H   0  0  0  0  0  0  0  0  0  0  0  0
   -4.2922   -6.4045    0.0000 H   0  0  0  0  0  0  0  0  0  0  0  0
   -2.8632   -7.2295    0.0000 H   0  0  0  0  0  0  0  0  0  0  0  0
   -1.4343   -6.4045    0.0000 H   0  0  0  0  0  0  0  0  0  0  0  0
   -1.4343   -4.7545    0.0000 H   0  0  0  0  0  0  0  0  0  0  0  0
   -3.0932   -1.5076    0.0000 H   0  0  0  0  0  0  0  0  0  0  0  0
   -4.2456   -1.3251    0.0000 H   0  0  0  0  0  0  0  0  0  0  0  0
   -4.4281   -2.4774    0.0000 H   0  0  0  0  0  0  0  0  0  0  0  0
    0.3094   -0.0764    0.0000 H   0  0  0  0  0  0  0  0  0  0  0  0
    3.0839    6.9489    0.0000 H   0  0  0  0  0  0  0  0  0  0  0  0
    3.0839    8.5989    0.0000 H   0  0  0  0  0  0  0  0  0  0  0  0
    1.6550    9.4239    0.0000 H   0  0  0  0  0  0  0  0  0  0  0  0
    0.2260    8.5989    0.0000 H   0  0  0  0  0  0  0  0  0  0  0  0
    0.2260    6.9489    0.0000 H   0  0  0  0  0  0  0  0  0  0  0  0
  1  2  1  0  0  0  0
  3  2  2  0  0  0  0
  4  3  1  0  0  0  0
  5  4  1  0  0  0  0
  5  6  2  0  0  0  0
  7  5  1  0  0  0  0
  7  8  2  0  0  0  0
  8  9  1  0  0  0  0
  9 10  1  0  0  0  0
 11 10  4  0  0  0  0
 12 11  4  0  0  0  0
 13 12  4  0  0  0  0
 14 13  4  0  0  0  0
 15 14  4  0  0  0  0
 15 16  1  0  0  0  0
 13 17  1  0  0  0  0
 18 17  4  0  0  0  0
 19 18  4  0  0  0  0
 20 19  4  0  0  0  0
 20 21  1  0  0  0  0
 22 21  1  0  0  0  0
 22 23  2  0  0  0  0
 24 23  1  0  0  0  0
 25 24  2  0  0  0  0
 26 25  1  0  0  0  0
 27 26  1  0  0  0  0
 27 28  2  0  0  0  0
 26 29  1  0  0  0  0
 30 29  4  0  0  0  0
 31 30  4  0  0  0  0
 32 31  4  0  0  0  0
 33 32  4  0  0  0  0
 34 33  4  0  0  0  0
 24 35  1  0  0  0  0
 36 20  4  0  0  0  0
 36 37  1  0  0  0  0
 38 36  4  0  0  0  0
  4 39  1  0  0  0  0
 40 39  4  0  0  0  0
 41 40  4  0  0  0  0
 42 41  4  0  0  0  0
 43 42  4  0  0  0  0
 44 43  4  0  0  0  0
  2  7  1  0  0  0  0
 10 15  4  0  0  0  0
 17 38  4  0  0  0  0
 23 27  1  0  0  0  0
 29 34  4  0  0  0  0
 39 44  4  0  0  0  0
  1 45  1  0  0  0  0
  1 46  1  0  0  0  0
  1 47  1  0  0  0  0
  9 48  1  0  0  0  0
 11 49  1  0  0  0  0
 12 50  1  0  0  0  0
 14 51  1  0  0  0  0
 18 52  1  0  0  0  0
 19 53  1  0  0  0  0
 21 54  1  0  0  0  0
 30 55  1  0  0  0  0
 31 56  1  0  0  0  0
 32 57  1  0  0  0  0
 33 58  1  0  0  0  0
 34 59  1  0  0  0  0
 35 60  1  0  0  0  0
 35 61  1  0  0  0  0
 35 62  1  0  0  0  0
 38 63  1  0  0  0  0
 40 64  1  0  0  0  0
 41 65  1  0  0  0  0
 42 66  1  0  0  0  0
 43 67  1  0  0  0  0
 44 68  1  0  0  0  0
M  END
>  <id_input>
2852, 2853

>  <InChIKey>
YFIMMXDLMXFWGF-UDEUAJILSA-N

>  <substance_name>
4-[(E)-2-(2-chloro-4-{3-chloro-4-[(E)-2-(3-methyl-5-oxo-1-phenyl-4,5-dihydro-1H-pyrazol-4-yl)diazen-1-yl]phenyl}phenyl)diazen-1-yl]-3-methyl-1-phenyl-4,5-dihydro-1H-pyrazol-5-one

>  <casrn>
3520-72-7

>  <Molecular weight>
623.4913330078125

>  <guideline>
OECD Guideline 404 (Acute Dermal Irritation / Corrosion)

>  <species>
rabbit

>  <type_of_coverage>
semiocclusive

>  <max_duration(hrs)>
4.0

>  <vehicle>
other: purified water

>  <edema/ erythema score>
0.0

>  <max_score>
4.0

>  <reversibility>
0.0

>  <Outcome>
0

>  <StandardizerResult>
Remove Explicit Hydrogens (ID: RemoveExplicitH)
Dearomatize (ID: Dearomatize)
Clear Stereo (ID: ClearStereo)
Wedge Clean (ID: WedgeClean)
Mesomerize (ID: Mesomerize)
Tautomerize (ID: Tautomerize)
Aromatize (ID: Aromatize)
Add Explicit Hydrogens (ID: AddExplicitH)
Neutralize (ID: Neutralize)
Clean 2D (ID: Clean2D)


$$$$

  Mrv1812 02121911042D          

 70 73  0  0  0  0            999 V2000
    4.0253    3.7530    0.0000 C   0  0  0  0  0  0  0  0  0  0  0  0
    3.3108    3.3405    0.0000 C   0  0  0  0  0  0  0  0  0  0  0  0
    3.3108    2.5155    0.0000 O   0  0  0  0  0  0  0  0  0  0  0  0
    2.5964    3.7530    0.0000 C   0  0  0  0  0  0  0  0  0  0  0  0
    1.8819    3.3405    0.0000 N   0  0  0  0  0  0  0  0  0  0  0  0
    1.8819    2.5155    0.0000 N   0  0  0  0  0  0  0  0  0  0  0  0
    1.1674    2.1030    0.0000 C   0  0  0  0  0  0  0  0  0  0  0  0
    0.4530    2.5155    0.0000 C   0  0  0  0  0  0  0  0  0  0  0  0
   -0.2615    2.1030    0.0000 C   0  0  0  0  0  0  0  0  0  0  0  0
   -0.2615    1.2780    0.0000 C   0  0  0  0  0  0  0  0  0  0  0  0
    0.4530    0.8655    0.0000 C   0  0  0  0  0  0  0  0  0  0  0  0
    1.1674    1.2780    0.0000 C   0  0  0  0  0  0  0  0  0  0  0  0
    1.8819    0.8655    0.0000 Cl  0  0  0  0  0  0  0  0  0  0  0  0
   -0.9760    0.8655    0.0000 C   0  0  0  0  0  0  0  0  0  0  0  0
   -1.6905    1.2780    0.0000 C   0  0  0  0  0  0  0  0  0  0  0  0
   -2.4049    0.8655    0.0000 C   0  0  0  0  0  0  0  0  0  0  0  0
   -2.4049    0.0405    0.0000 C   0  0  0  0  0  0  0  0  0  0  0  0
   -3.1194   -0.3720    0.0000 N   0  0  0  0  0  0  0  0  0  0  0  0
   -3.1194   -1.1970    0.0000 N   0  0  0  0  0  0  0  0  0  0  0  0
   -3.8339   -1.6095    0.0000 C   0  0  0  0  0  0  0  0  0  0  0  0
   -4.5483   -1.1970    0.0000 C   0  0  0  0  0  0  0  0  0  0  0  0
   -5.2628   -1.6095    0.0000 C   0  0  0  0  0  0  0  0  0  0  0  0
   -4.5483   -0.3720    0.0000 O   0  0  0  0  0  0  0  0  0  0  0  0
   -3.8339   -2.4345    0.0000 C   0  0  0  0  0  0  0  0  0  0  0  0
   -3.1194   -2.8470    0.0000 O   0  0  0  0  0  0  0  0  0  0  0  0
   -4.5483   -2.8470    0.0000 N   0  0  0  0  0  0  0  0  0  0  0  0
   -4.5483   -3.6720    0.0000 C   0  0  0  0  0  0  0  0  0  0  0  0
   -5.2628   -4.0845    0.0000 C   0  0  0  0  0  0  0  0  0  0  0  0
   -5.2628   -4.9095    0.0000 C   0  0  0  0  0  0  0  0  0  0  0  0
   -4.5483   -5.3220    0.0000 C   0  0  0  0  0  0  0  0  0  0  0  0
   -3.8339   -4.9095    0.0000 C   0  0  0  0  0  0  0  0  0  0  0  0
   -3.8339   -4.0845    0.0000 C   0  0  0  0  0  0  0  0  0  0  0  0
   -1.6905   -0.3720    0.0000 C   0  0  0  0  0  0  0  0  0  0  0  0
   -1.6905   -1.1970    0.0000 Cl  0  0  0  0  0  0  0  0  0  0  0  0
   -0.9760    0.0405    0.0000 C   0  0  0  0  0  0  0  0  0  0  0  0
    2.5964    4.5780    0.0000 C   0  0  0  0  0  0  0  0  0  0  0  0
    1.8819    4.9905    0.0000 O   0  0  0  0  0  0  0  0  0  0  0  0
    3.3108    4.9905    0.0000 N   0  0  0  0  0  0  0  0  0  0  0  0
    3.3108    5.8155    0.0000 C   0  0  0  0  0  0  0  0  0  0  0  0
    4.0253    6.2280    0.0000 C   0  0  0  0  0  0  0  0  0  0  0  0
    4.0253    7.0530    0.0000 C   0  0  0  0  0  0  0  0  0  0  0  0
    3.3108    7.4655    0.0000 C   0  0  0  0  0  0  0  0  0  0  0  0
    2.5964    7.0530    0.0000 C   0  0  0  0  0  0  0  0  0  0  0  0
    2.5964    6.2280    0.0000 C   0  0  0  0  0  0  0  0  0  0  0  0
    4.4378    3.0385    0.0000 H   0  0  0  0  0  0  0  0  0  0  0  0
    4.7398    4.1655    0.0000 H   0  0  0  0  0  0  0  0  0  0  0  0
    3.6128    4.4675    0.0000 H   0  0  0  0  0  0  0  0  0  0  0  0
    2.5964    2.1030    0.0000 H   0  0  0  0  0  0  0  0  0  0  0  0
    0.4530    3.3405    0.0000 H   0  0  0  0  0  0  0  0  0  0  0  0
   -0.9760    2.5155    0.0000 H   0  0  0  0  0  0  0  0  0  0  0  0
    0.4530    0.0405    0.0000 H   0  0  0  0  0  0  0  0  0  0  0  0
   -1.6905    2.1030    0.0000 H   0  0  0  0  0  0  0  0  0  0  0  0
   -3.1194    1.2780    0.0000 H   0  0  0  0  0  0  0  0  0  0  0  0
   -3.8339    0.0405    0.0000 H   0  0  0  0  0  0  0  0  0  0  0  0
   -5.6753   -0.8950    0.0000 H   0  0  0  0  0  0  0  0  0  0  0  0
   -5.9773   -2.0220    0.0000 H   0  0  0  0  0  0  0  0  0  0  0  0
   -4.8503   -2.3240    0.0000 H   0  0  0  0  0  0  0  0  0  0  0  0
   -5.3452   -3.0605    0.0000 H   0  0  0  0  0  0  0  0  0  0  0  0
   -5.9773   -3.6720    0.0000 H   0  0  0  0  0  0  0  0  0  0  0  0
   -5.9773   -5.3220    0.0000 H   0  0  0  0  0  0  0  0  0  0  0  0
   -4.5483   -6.1470    0.0000 H   0  0  0  0  0  0  0  0  0  0  0  0
   -3.1194   -5.3220    0.0000 H   0  0  0  0  0  0  0  0  0  0  0  0
   -3.1194   -3.6720    0.0000 H   0  0  0  0  0  0  0  0  0  0  0  0
   -0.2615   -0.3720    0.0000 H   0  0  0  0  0  0  0  0  0  0  0  0
    4.1077    5.2040    0.0000 H   0  0  0  0  0  0  0  0  0  0  0  0
    4.7398    5.8155    0.0000 H   0  0  0  0  0  0  0  0  0  0  0  0
    4.7398    7.4655    0.0000 H   0  0  0  0  0  0  0  0  0  0  0  0
    3.3108    8.2905    0.0000 H   0  0  0  0  0  0  0  0  0  0  0  0
    1.8819    7.4655    0.0000 H   0  0  0  0  0  0  0  0  0  0  0  0
    1.8819    5.8155    0.0000 H   0  0  0  0  0  0  0  0  0  0  0  0
  1  2  1  0  0  0  0
  2  3  2  0  0  0  0
  2  4  1  0  0  0  0
  4  5  2  0  0  0  0
  5  6  1  0  0  0  0
  6  7  1  0  0  0  0
  8  7  4  0  0  0  0
  9  8  4  0  0  0  0
 10  9  4  0  0  0  0
 11 10  4  0  0  0  0
 12 11  4  0  0  0  0
 12 13  1  0  0  0  0
 10 14  1  0  0  0  0
 15 14  4  0  0  0  0
 16 15  4  0  0  0  0
 17 16  4  0  0  0  0
 17 18  1  0  0  0  0
 19 18  1  0  0  0  0
 19 20  2  0  0  0  0
 20 21  1  0  0  0  0
 21 22  1  0  0  0  0
 21 23  2  0  0  0  0
 20 24  1  0  0  0  0
 24 25  2  0  0  0  0
 24 26  1  0  0  0  0
 26 27  1  0  0  0  0
 28 27  4  0  0  0  0
 29 28  4  0  0  0  0
 30 29  4  0  0  0  0
 31 30  4  0  0  0  0
 32 31  4  0  0  0  0
 33 17  4  0  0  0  0
 33 34  1  0  0  0  0
 35 33  4  0  0  0  0
  4 36  1  0  0  0  0
 36 37  2  0  0  0  0
 36 38  1  0  0  0  0
 38 39  1  0  0  0  0
 40 39  4  0  0  0  0
 41 40  4  0  0  0  0
 42 41  4  0  0  0  0
 43 42  4  0  0  0  0
 44 43  4  0  0  0  0
  7 12  4  0  0  0  0
 14 35  4  0  0  0  0
 27 32  4  0  0  0  0
 39 44  4  0  0  0  0
  1 45  1  0  0  0  0
  1 46  1  0  0  0  0
  1 47  1  0  0  0  0
  6 48  1  0  0  0  0
  8 49  1  0  0  0  0
  9 50  1  0  0  0  0
 11 51  1  0  0  0  0
 15 52  1  0  0  0  0
 16 53  1  0  0  0  0
 18 54  1  0  0  0  0
 22 55  1  0  0  0  0
 22 56  1  0  0  0  0
 22 57  1  0  0  0  0
 26 58  1  0  0  0  0
 28 59  1  0  0  0  0
 29 60  1  0  0  0  0
 30 61  1  0  0  0  0
 31 62  1  0  0  0  0
 32 63  1  0  0  0  0
 35 64  1  0  0  0  0
 38 65  1  0  0  0  0
 40 66  1  0  0  0  0
 41 67  1  0  0  0  0
 42 68  1  0  0  0  0
 43 69  1  0  0  0  0
 44 70  1  0  0  0  0
M  END
>  <id_input>
2610, 2612, 2615, 2616, 2619, 2620

>  <InChIKey>
WZHUJOMADVNYDA-UHFFFAOYSA-N

>  <substance_name>
2-{2-[2-chloro-4-(3-chloro-4-{2-[2-oxo-1-(phenylcarbamoyl)propyl]diazen-1-yl}phenyl)phenyl]diazen-1-yl}-3-oxo-N-phenylbutanamide

>  <casrn>
6358-85-6

>  <Molecular weight>
629.49267578125

>  <guideline>
OECD Guideline 404 (Acute Dermal Irritation / Corrosion)

>  <species>
rabbit

>  <type_of_coverage>
semiocclusive

>  <max_duration(hrs)>
4.0

>  <vehicle>
other: polyethylene glycol 400

>  <edema/ erythema score>
0.9813888888888872

>  <max_score>
4.0

>  <reversibility>
0.0

>  <Outcome>
0

>  <StandardizerResult>
Remove Explicit Hydrogens (ID: RemoveExplicitH)
Dearomatize (ID: Dearomatize)
Clear Stereo (ID: ClearStereo)
Wedge Clean (ID: WedgeClean)
Mesomerize (ID: Mesomerize)
Tautomerize (ID: Tautomerize)
Aromatize (ID: Aromatize)
Add Explicit Hydrogens (ID: AddExplicitH)
Neutralize (ID: Neutralize)
Clean 2D (ID: Clean2D)


$$$$

  Mrv1812 02121911042D          

 41 43  0  0  0  0            999 V2000
   -3.4841   -2.8994    0.0000 C   0  0  0  0  0  0  0  0  0  0  0  0
   -2.7697   -3.3119    0.0000 O   0  0  0  0  0  0  0  0  0  0  0  0
   -2.0552   -2.8994    0.0000 C   0  0  0  0  0  0  0  0  0  0  0  0
   -1.3407   -3.3119    0.0000 C   0  0  0  0  0  0  0  0  0  0  0  0
   -0.6262   -2.8994    0.0000 C   0  0  0  0  0  0  0  0  0  0  0  0
    0.0882   -3.3119    0.0000 N   0  0  0  0  0  0  0  0  0  0  0  0
    0.8027   -2.8994    0.0000 C   0  0  0  0  0  0  0  0  0  0  0  0
    0.8027   -2.0744    0.0000 O   0  0  0  0  0  0  0  0  0  0  0  0
    1.5172   -3.3119    0.0000 C   0  0  0  0  0  0  0  0  0  0  0  0
    2.2316   -2.8994    0.0000 C   0  0  0  0  0  0  0  0  0  0  0  0
    2.9461   -3.3119    0.0000 C   0  0  0  0  0  0  0  0  0  0  0  0
    3.6606   -2.8994    0.0000 C   0  0  0  0  0  0  0  0  0  0  0  0
    4.3751   -3.3119    0.0000 C   0  0  0  0  0  0  0  0  0  0  0  0
    4.3751   -4.1369    0.0000 C   0  0  0  0  0  0  0  0  0  0  0  0
    3.6606   -4.5494    0.0000 C   0  0  0  0  0  0  0  0  0  0  0  0
    2.9461   -4.1369    0.0000 C   0  0  0  0  0  0  0  0  0  0  0  0
    2.2316   -4.5494    0.0000 C   0  0  0  0  0  0  0  0  0  0  0  0
    1.5172   -4.1369    0.0000 C   0  0  0  0  0  0  0  0  0  0  0  0
    0.8027   -4.5494    0.0000 O   0  0  0  0  0  0  0  0  0  0  0  0
   -0.6262   -2.0744    0.0000 C   0  0  0  0  0  0  0  0  0  0  0  0
    0.0882   -1.6619    0.0000 O   0  0  0  0  0  0  0  0  0  0  0  0
    0.0882   -0.8369    0.0000 C   0  0  0  0  0  0  0  0  0  0  0  0
   -1.3407   -1.6619    0.0000 C   0  0  0  0  0  0  0  0  0  0  0  0
   -2.0552   -2.0744    0.0000 C   0  0  0  0  0  0  0  0  0  0  0  0
   -2.7697   -1.6619    0.0000 Cl  0  0  0  0  0  0  0  0  0  0  0  0
   -3.0716   -2.1849    0.0000 H   0  0  0  0  0  0  0  0  0  0  0  0
   -4.1986   -2.4869    0.0000 H   0  0  0  0  0  0  0  0  0  0  0  0
   -3.8966   -3.6139    0.0000 H   0  0  0  0  0  0  0  0  0  0  0  0
   -1.3407   -4.1369    0.0000 H   0  0  0  0  0  0  0  0  0  0  0  0
    0.0882   -4.1369    0.0000 H   0  0  0  0  0  0  0  0  0  0  0  0
    2.2316   -2.0744    0.0000 H   0  0  0  0  0  0  0  0  0  0  0  0
    3.6606   -2.0744    0.0000 H   0  0  0  0  0  0  0  0  0  0  0  0
    5.0895   -2.8994    0.0000 H   0  0  0  0  0  0  0  0  0  0  0  0
    5.0895   -4.5494    0.0000 H   0  0  0  0  0  0  0  0  0  0  0  0
    3.6606   -5.3744    0.0000 H   0  0  0  0  0  0  0  0  0  0  0  0
    2.2316   -5.3744    0.0000 H   0  0  0  0  0  0  0  0  0  0  0  0
    0.8027   -5.3744    0.0000 H   0  0  0  0  0  0  0  0  0  0  0  0
    0.9132   -0.8369    0.0000 H   0  0  0  0  0  0  0  0  0  0  0  0
    0.0882   -0.0119    0.0000 H   0  0  0  0  0  0  0  0  0  0  0  0
   -0.7368   -0.8369    0.0000 H   0  0  0  0  0  0  0  0  0  0  0  0
   -1.3407   -0.8369    0.0000 H   0  0  0  0  0  0  0  0  0  0  0  0
  1  2  1  0  0  0  0
  2  3  1  0  0  0  0
  4  3  4  0  0  0  0
  5  4  4  0  0  0  0
  5  6  1  0  0  0  0
  6  7  1  0  0  0  0
  7  8  2  0  0  0  0
  7  9  1  0  0  0  0
 10  9  4  0  0  0  0
 11 10  4  0  0  0  0
 11 12  4  0  0  0  0
 12 13  4  0  0  0  0
 13 14  4  0  0  0  0
 14 15  4  0  0  0  0
 15 16  4  0  0  0  0
 17 16  4  0  0  0  0
 18 17  4  0  0  0  0
 18 19  1  0  0  0  0
 20  5  4  0  0  0  0
 20 21  1  0  0  0  0
 21 22  1  0  0  0  0
 23 20  4  0  0  0  0
 24 23  4  0  0  0  0
 24 25  1  0  0  0  0
  3 24  4  0  0  0  0
  9 18  4  0  0  0  0
 16 11  4  0  0  0  0
  1 26  1  0  0  0  0
  1 27  1  0  0  0  0
  1 28  1  0  0  0  0
  4 29  1  0  0  0  0
  6 30  1  0  0  0  0
 10 31  1  0  0  0  0
 12 32  1  0  0  0  0
 13 33  1  0  0  0  0
 14 34  1  0  0  0  0
 15 35  1  0  0  0  0
 17 36  1  0  0  0  0
 19 37  1  0  0  0  0
 22 38  1  0  0  0  0
 22 39  1  0  0  0  0
 22 40  1  0  0  0  0
 23 41  1  0  0  0  0
M  END
>  <id_input>
145

>  <InChIKey>
QIHKTBRNOLQDGQ-UHFFFAOYSA-N

>  <substance_name>
(Z)-N-(4-chloro-2,5-dimethoxyphenyl)-3-hydroxynaphthalene-2-carboximidic acid

>  <casrn>
4273-92-1

>  <Molecular weight>
357.78765869140625

>  <guideline>
OECD Guideline 404 (Acute Dermal Irritation / Corrosion)

>  <species>
rabbit

>  <type_of_coverage>
semiocclusive

>  <max_duration(hrs)>
4.0

>  <vehicle>
other: polyethyleneglycol 400

>  <edema/ erythema score>
0.4

>  <max_score>
4.0

>  <reversibility>
0.0

>  <Outcome>
0

>  <StandardizerResult>
Remove Explicit Hydrogens (ID: RemoveExplicitH)
Dearomatize (ID: Dearomatize)
Clear Stereo (ID: ClearStereo)
Wedge Clean (ID: WedgeClean)
Mesomerize (ID: Mesomerize)
Tautomerize (ID: Tautomerize)
Aromatize (ID: Aromatize)
Add Explicit Hydrogens (ID: AddExplicitH)
Neutralize (ID: Neutralize)
Clean 2D (ID: Clean2D)


$$$$

  Mrv1812 02121911042D          

 24 24  0  0  0  0            999 V2000
    0.4146    2.3448    0.0000 C   0  0  0  0  0  0  0  0  0  0  0  0
   -0.2998    2.7573    0.0000 C   0  0  0  0  0  0  0  0  0  0  0  0
   -1.0143    2.3448    0.0000 C   0  0  0  0  0  0  0  0  0  0  0  0
   -1.0143    1.5198    0.0000 C   0  0  0  0  0  0  0  0  0  0  0  0
   -0.2998    1.1073    0.0000 C   0  0  0  0  0  0  0  0  0  0  0  0
    0.4146    1.5198    0.0000 C   0  0  0  0  0  0  0  0  0  0  0  0
    1.1291    1.1073    0.0000 Cl  0  0  0  0  0  0  0  0  0  0  0  0
   -0.2998    0.2823    0.0000 O   0  0  0  0  0  0  0  0  0  0  0  0
    0.4146   -0.1302    0.0000 C   0  0  0  0  0  0  0  0  0  0  0  0
    1.1291   -0.5427    0.0000 C   0  0  0  0  0  0  0  0  0  0  0  0
    1.1291   -1.3677    0.0000 C   0  0  0  0  0  0  0  0  0  0  0  0
    1.1291   -2.1927    0.0000 F   0  0  0  0  0  0  0  0  0  0  0  0
    1.9541   -1.3677    0.0000 F   0  0  0  0  0  0  0  0  0  0  0  0
    0.3041   -1.3677    0.0000 F   0  0  0  0  0  0  0  0  0  0  0  0
    1.8436   -0.1302    0.0000 F   0  0  0  0  0  0  0  0  0  0  0  0
    0.8271    0.5843    0.0000 F   0  0  0  0  0  0  0  0  0  0  0  0
    0.0021   -0.8447    0.0000 F   0  0  0  0  0  0  0  0  0  0  0  0
   -1.7288    2.7573    0.0000 Cl  0  0  0  0  0  0  0  0  0  0  0  0
   -0.2998    3.5823    0.0000 N   0  0  0  0  0  0  0  0  0  0  0  0
   -1.0143    3.9948    0.0000 O   0  0  0  0  0  0  0  0  0  0  0  0
    0.4146    3.9948    0.0000 O   0  0  0  0  0  0  0  0  0  0  0  0
    1.1291    2.7573    0.0000 H   0  0  0  0  0  0  0  0  0  0  0  0
   -1.7288    1.1073    0.0000 H   0  0  0  0  0  0  0  0  0  0  0  0
    0.4146   -0.9552    0.0000 H   0  0  0  0  0  0  0  0  0  0  0  0
  2  1  4  0  0  0  0
  3  2  4  0  0  0  0
  4  3  4  0  0  0  0
  5  4  4  0  0  0  0
  6  5  4  0  0  0  0
  6  7  1  0  0  0  0
  5  8  1  0  0  0  0
  8  9  1  0  0  0  0
  9 10  1  0  0  0  0
 10 11  1  0  0  0  0
 11 12  1  0  0  0  0
 11 13  1  0  0  0  0
 11 14  1  0  0  0  0
 10 15  1  0  0  0  0
  9 16  1  0  0  0  0
  9 17  1  0  0  0  0
  3 18  1  0  0  0  0
  2 19  1  0  0  0  0
 19 20  2  0  0  0  0
 19 21  2  0  0  0  0
  1  6  4  0  0  0  0
  1 22  1  0  0  0  0
  4 23  1  0  0  0  0
 10 24  1  0  0  0  0
M  END
>  <id_input>
547

>  <InChIKey>
WDTRKHSHZIJORU-UHFFFAOYSA-N

>  <substance_name>
-

>  <casrn>
130841-23-5

>  <Molecular weight>
358.0214538574219

>  <guideline>
OECD Guideline 404 (Acute Dermal Irritation / Corrosion)

>  <species>
rabbit

>  <type_of_coverage>
occlusive

>  <max_duration(hrs)>
4.0

>  <vehicle>
unchanged (no vehicle)

>  <edema/ erythema score>
0.33

>  <max_score>
2.0

>  <reversibility>
0.0

>  <Outcome>
0

>  <StandardizerResult>
Remove Explicit Hydrogens (ID: RemoveExplicitH)
Dearomatize (ID: Dearomatize)
Clear Stereo (ID: ClearStereo)
Wedge Clean (ID: WedgeClean)
Mesomerize (ID: Mesomerize)
Tautomerize (ID: Tautomerize)
Aromatize (ID: Aromatize)
Add Explicit Hydrogens (ID: AddExplicitH)
Neutralize (ID: Neutralize)
Clean 2D (ID: Clean2D)


$$$$

  Mrv1812 02121911042D          

 78 81  0  0  0  0            999 V2000
   -0.7497    2.3140    0.0000 C   0  0  0  0  0  0  0  0  0  0  0  0
   -1.4642    2.7265    0.0000 O   0  0  0  0  0  0  0  0  0  0  0  0
   -2.1787    2.3140    0.0000 C   0  0  0  0  0  0  0  0  0  0  0  0
   -2.8932    2.7265    0.0000 C   0  0  0  0  0  0  0  0  0  0  0  0
   -3.6076    2.3140    0.0000 C   0  0  0  0  0  0  0  0  0  0  0  0
   -3.6076    1.4890    0.0000 C   0  0  0  0  0  0  0  0  0  0  0  0
   -4.3221    1.0765    0.0000 N   0  0  0  0  0  0  0  0  0  0  0  0
   -5.0366    1.4890    0.0000 C   0  0  0  0  0  0  0  0  0  0  0  0
   -5.0366    2.3140    0.0000 O   0  0  0  0  0  0  0  0  0  0  0  0
   -5.7510    1.0765    0.0000 C   0  0  0  0  0  0  0  0  0  0  0  0
   -5.7510    0.2515    0.0000 N   0  0  0  0  0  0  0  0  0  0  0  0
   -6.4655   -0.1610    0.0000 N   0  0  0  0  0  0  0  0  0  0  0  0
   -6.4655   -0.9860    0.0000 C   0  0  0  0  0  0  0  0  0  0  0  0
   -7.1800   -1.3985    0.0000 C   0  0  0  0  0  0  0  0  0  0  0  0
   -7.1800   -2.2235    0.0000 C   0  0  0  0  0  0  0  0  0  0  0  0
   -6.4655   -2.6360    0.0000 C   0  0  0  0  0  0  0  0  0  0  0  0
   -5.7510   -2.2235    0.0000 C   0  0  0  0  0  0  0  0  0  0  0  0
   -5.7510   -1.3985    0.0000 C   0  0  0  0  0  0  0  0  0  0  0  0
   -5.0366   -0.9860    0.0000 Cl  0  0  0  0  0  0  0  0  0  0  0  0
   -6.4655   -3.4610    0.0000 C   0  0  0  0  0  0  0  0  0  0  0  0
   -7.1800   -3.8735    0.0000 C   0  0  0  0  0  0  0  0  0  0  0  0
   -7.1800   -4.6985    0.0000 C   0  0  0  0  0  0  0  0  0  0  0  0
   -6.4655   -5.1110    0.0000 C   0  0  0  0  0  0  0  0  0  0  0  0
   -6.4655   -5.9360    0.0000 N   0  0  0  0  0  0  0  0  0  0  0  0
   -5.7510   -6.3485    0.0000 N   0  0  0  0  0  0  0  0  0  0  0  0
   -5.7510   -7.1735    0.0000 C   0  0  0  0  0  0  0  0  0  0  0  0
   -6.4655   -7.5860    0.0000 C   0  0  0  0  0  0  0  0  0  0  0  0
   -6.4655   -8.4110    0.0000 C   0  0  0  0  0  0  0  0  0  0  0  0
   -7.1800   -7.1735    0.0000 O   0  0  0  0  0  0  0  0  0  0  0  0
   -5.0366   -7.5860    0.0000 C   0  0  0  0  0  0  0  0  0  0  0  0
   -4.3221   -7.1735    0.0000 O   0  0  0  0  0  0  0  0  0  0  0  0
   -5.0366   -8.4110    0.0000 N   0  0  0  0  0  0  0  0  0  0  0  0
   -4.3221   -8.8235    0.0000 C   0  0  0  0  0  0  0  0  0  0  0  0
   -4.3221   -9.6485    0.0000 C   0  0  0  0  0  0  0  0  0  0  0  0
   -3.6076  -10.0610    0.0000 C   0  0  0  0  0  0  0  0  0  0  0  0
   -2.8932   -9.6485    0.0000 C   0  0  0  0  0  0  0  0  0  0  0  0
   -2.1787  -10.0610    0.0000 O   0  0  0  0  0  0  0  0  0  0  0  0
   -2.1787  -10.8860    0.0000 C   0  0  0  0  0  0  0  0  0  0  0  0
   -2.8932   -8.8235    0.0000 C   0  0  0  0  0  0  0  0  0  0  0  0
   -3.6076   -8.4110    0.0000 C   0  0  0  0  0  0  0  0  0  0  0  0
   -5.7510   -4.6985    0.0000 C   0  0  0  0  0  0  0  0  0  0  0  0
   -5.0366   -5.1110    0.0000 Cl  0  0  0  0  0  0  0  0  0  0  0  0
   -5.7510   -3.8735    0.0000 C   0  0  0  0  0  0  0  0  0  0  0  0
   -6.4655    1.4890    0.0000 C   0  0  0  0  0  0  0  0  0  0  0  0
   -6.4655    2.3140    0.0000 C   0  0  0  0  0  0  0  0  0  0  0  0
   -7.1800    1.0765    0.0000 O   0  0  0  0  0  0  0  0  0  0  0  0
   -2.8932    1.0765    0.0000 C   0  0  0  0  0  0  0  0  0  0  0  0
   -2.1787    1.4890    0.0000 C   0  0  0  0  0  0  0  0  0  0  0  0
   -1.1622    1.5996    0.0000 H   0  0  0  0  0  0  0  0  0  0  0  0
   -0.0353    1.9015    0.0000 H   0  0  0  0  0  0  0  0  0  0  0  0
   -0.3372    3.0285    0.0000 H   0  0  0  0  0  0  0  0  0  0  0  0
   -2.8932    3.5515    0.0000 H   0  0  0  0  0  0  0  0  0  0  0  0
   -4.3221    2.7265    0.0000 H   0  0  0  0  0  0  0  0  0  0  0  0
   -4.3221    0.2515    0.0000 H   0  0  0  0  0  0  0  0  0  0  0  0
   -7.1800    0.2515    0.0000 H   0  0  0  0  0  0  0  0  0  0  0  0
   -7.8945   -0.9860    0.0000 H   0  0  0  0  0  0  0  0  0  0  0  0
   -7.8945   -2.6360    0.0000 H   0  0  0  0  0  0  0  0  0  0  0  0
   -5.0366   -2.6360    0.0000 H   0  0  0  0  0  0  0  0  0  0  0  0
   -7.8945   -3.4610    0.0000 H   0  0  0  0  0  0  0  0  0  0  0  0
   -7.8945   -5.1110    0.0000 H   0  0  0  0  0  0  0  0  0  0  0  0
   -7.1800   -6.3485    0.0000 H   0  0  0  0  0  0  0  0  0  0  0  0
   -7.2905   -8.4110    0.0000 H   0  0  0  0  0  0  0  0  0  0  0  0
   -6.4655   -9.2360    0.0000 H   0  0  0  0  0  0  0  0  0  0  0  0
   -5.6405   -8.4110    0.0000 H   0  0  0  0  0  0  0  0  0  0  0  0
   -5.2501   -9.2079    0.0000 H   0  0  0  0  0  0  0  0  0  0  0  0
   -5.0366  -10.0610    0.0000 H   0  0  0  0  0  0  0  0  0  0  0  0
   -3.6076  -10.8860    0.0000 H   0  0  0  0  0  0  0  0  0  0  0  0
   -3.0037  -10.8860    0.0000 H   0  0  0  0  0  0  0  0  0  0  0  0
   -2.1787  -11.7110    0.0000 H   0  0  0  0  0  0  0  0  0  0  0  0
   -1.3537  -10.8860    0.0000 H   0  0  0  0  0  0  0  0  0  0  0  0
   -2.1787   -8.4110    0.0000 H   0  0  0  0  0  0  0  0  0  0  0  0
   -3.6076   -7.5860    0.0000 H   0  0  0  0  0  0  0  0  0  0  0  0
   -5.0366   -3.4610    0.0000 H   0  0  0  0  0  0  0  0  0  0  0  0
   -5.6405    2.3140    0.0000 H   0  0  0  0  0  0  0  0  0  0  0  0
   -6.4655    3.1390    0.0000 H   0  0  0  0  0  0  0  0  0  0  0  0
   -7.2905    2.3140    0.0000 H   0  0  0  0  0  0  0  0  0  0  0  0
   -2.8932    0.2515    0.0000 H   0  0  0  0  0  0  0  0  0  0  0  0
   -1.4642    1.0765    0.0000 H   0  0  0  0  0  0  0  0  0  0  0  0
  1  2  1  0  0  0  0
  2  3  1  0  0  0  0
  4  3  4  0  0  0  0
  5  4  4  0  0  0  0
  6  5  4  0  0  0  0
  6  7  1  0  0  0  0
  7  8  1  0  0  0  0
  8  9  2  0  0  0  0
  8 10  1  0  0  0  0
 10 11  2  0  0  0  0
 11 12  1  0  0  0  0
 12 13  1  0  0  0  0
 14 13  4  0  0  0  0
 15 14  4  0  0  0  0
 16 15  4  0  0  0  0
 17 16  4  0  0  0  0
 18 17  4  0  0  0  0
 18 19  1  0  0  0  0
 16 20  1  0  0  0  0
 21 20  4  0  0  0  0
 22 21  4  0  0  0  0
 23 22  4  0  0  0  0
 23 24  1  0  0  0  0
 25 24  1  0  0  0  0
 25 26  2  0  0  0  0
 26 27  1  0  0  0  0
 27 28  1  0  0  0  0
 27 29  2  0  0  0  0
 26 30  1  0  0  0  0
 30 31  2  0  0  0  0
 30 32  1  0  0  0  0
 32 33  1  0  0  0  0
 34 33  4  0  0  0  0
 35 34  4  0  0  0  0
 36 35  4  0  0  0  0
 36 37  1  0  0  0  0
 37 38  1  0  0  0  0
 39 36  4  0  0  0  0
 40 39  4  0  0  0  0
 41 23  4  0  0  0  0
 41 42  1  0  0  0  0
 43 41  4  0  0  0  0
 10 44  1  0  0  0  0
 44 45  1  0  0  0  0
 44 46  2  0  0  0  0
 47  6  4  0  0  0  0
 48 47  4  0  0  0  0
  3 48  4  0  0  0  0
 13 18  4  0  0  0  0
 20 43  4  0  0  0  0
 33 40  4  0  0  0  0
  1 49  1  0  0  0  0
  1 50  1  0  0  0  0
  1 51  1  0  0  0  0
  4 52  1  0  0  0  0
  5 53  1  0  0  0  0
  7 54  1  0  0  0  0
 12 55  1  0  0  0  0
 14 56  1  0  0  0  0
 15 57  1  0  0  0  0
 17 58  1  0  0  0  0
 21 59  1  0  0  0  0
 22 60  1  0  0  0  0
 24 61  1  0  0  0  0
 28 62  1  0  0  0  0
 28 63  1  0  0  0  0
 28 64  1  0  0  0  0
 32 65  1  0  0  0  0
 34 66  1  0  0  0  0
 35 67  1  0  0  0  0
 38 68  1  0  0  0  0
 38 69  1  0  0  0  0
 38 70  1  0  0  0  0
 39 71  1  0  0  0  0
 40 72  1  0  0  0  0
 43 73  1  0  0  0  0
 45 74  1  0  0  0  0
 45 75  1  0  0  0  0
 45 76  1  0  0  0  0
 47 77  1  0  0  0  0
 48 78  1  0  0  0  0
M  END
>  <id_input>
2321, 2323

>  <InChIKey>
KVJVAWHTZWFOPK-UHFFFAOYSA-N

>  <substance_name>
2-[(E)-2-(2-chloro-4-{3-chloro-4-[(E)-2-{1-[(4-methoxyphenyl)carbamoyl]-2-oxopropyl}diazen-1-yl]phenyl}phenyl)diazen-1-yl]-N-(4-methoxyphenyl)-3-oxobutanamide

>  <casrn>
31775-16-3

>  <Molecular weight>
689.5446166992188

>  <guideline>
OECD Guideline 404 (Acute Dermal Irritation / Corrosion)

>  <species>
rabbit

>  <type_of_coverage>
semiocclusive

>  <max_duration(hrs)>
4.0

>  <vehicle>
other: polyethylene glycol 400

>  <edema/ erythema score>
1.1125

>  <max_score>
4.0

>  <reversibility>
0.0

>  <Outcome>
0

>  <StandardizerResult>
Remove Explicit Hydrogens (ID: RemoveExplicitH)
Dearomatize (ID: Dearomatize)
Clear Stereo (ID: ClearStereo)
Wedge Clean (ID: WedgeClean)
Mesomerize (ID: Mesomerize)
Tautomerize (ID: Tautomerize)
Aromatize (ID: Aromatize)
Add Explicit Hydrogens (ID: AddExplicitH)
Neutralize (ID: Neutralize)
Clean 2D (ID: Clean2D)


$$$$

  Mrv1812 02121911042D          

 42 43  0  0  0  0            999 V2000
   -7.0564   -0.1149    0.0000 C   0  0  0  0  0  0  0  0  0  0  0  0
   -6.6439   -0.8294    0.0000 C   0  0  0  0  0  0  0  0  0  0  0  0
   -5.8189   -0.8294    0.0000 C   0  0  0  0  0  0  0  0  0  0  0  0
   -5.4064   -0.1149    0.0000 C   0  0  0  0  0  0  0  0  0  0  0  0
   -5.8189    0.5996    0.0000 C   0  0  0  0  0  0  0  0  0  0  0  0
   -6.6439    0.5996    0.0000 C   0  0  0  0  0  0  0  0  0  0  0  0
   -4.5814   -0.1149    0.0000 C   0  0  0  0  0  0  0  0  0  0  0  0
   -4.1689    0.5996    0.0000 O   0  0  0  0  0  0  0  0  0  0  0  0
   -3.3439    0.5996    0.0000 C   0  0  0  0  0  0  0  0  0  0  0  0
   -2.9314   -0.1149    0.0000 O   0  0  0  0  0  0  0  0  0  0  0  0
   -2.9314    1.3140    0.0000 N   0  0  0  0  0  0  0  0  0  0  0  0
   -2.1064    1.3140    0.0000 C   0  0  0  0  0  0  0  0  0  0  0  0
   -1.6939    2.0285    0.0000 C   0  0  0  0  0  0  0  0  0  0  0  0
   -0.8689    2.0285    0.0000 C   0  0  0  0  0  0  0  0  0  0  0  0
   -0.4564    2.7430    0.0000 C   0  0  0  0  0  0  0  0  0  0  0  0
   -0.8689    3.4574    0.0000 C   0  0  0  0  0  0  0  0  0  0  0  0
   -1.6939    3.4574    0.0000 C   0  0  0  0  0  0  0  0  0  0  0  0
   -2.1064    2.7430    0.0000 C   0  0  0  0  0  0  0  0  0  0  0  0
   -1.6939    0.5996    0.0000 C   0  0  0  0  0  0  0  0  0  0  0  0
   -0.8689    0.5996    0.0000 O   0  0  0  0  0  0  0  0  0  0  0  0
   -2.1064   -0.1149    0.0000 O   0  0  0  0  0  0  0  0  0  0  0  0
   -7.8814   -0.1149    0.0000 H   0  0  0  0  0  0  0  0  0  0  0  0
   -7.0564   -1.5439    0.0000 H   0  0  0  0  0  0  0  0  0  0  0  0
   -5.4064   -1.5439    0.0000 H   0  0  0  0  0  0  0  0  0  0  0  0
   -5.4064    1.3140    0.0000 H   0  0  0  0  0  0  0  0  0  0  0  0
   -7.0564    1.3140    0.0000 H   0  0  0  0  0  0  0  0  0  0  0  0
   -4.5334   -0.9385    0.0000 H   0  0  0  0  0  0  0  0  0  0  0  0
   -3.8921   -0.5683    0.0000 H   0  0  0  0  0  0  0  0  0  0  0  0
   -3.3439    2.0285    0.0000 H   0  0  0  0  0  0  0  0  0  0  0  0
   -2.5189    2.0285    0.0000 H   0  0  0  0  0  0  0  0  0  0  0  0
   -1.2814    1.3140    0.0000 H   0  0  0  0  0  0  0  0  0  0  0  0
   -0.3386    1.3965    0.0000 H   0  0  0  0  0  0  0  0  0  0  0  0
   -0.0564    1.8852    0.0000 H   0  0  0  0  0  0  0  0  0  0  0  0
    0.3626    2.8427    0.0000 H   0  0  0  0  0  0  0  0  0  0  0  0
    0.0951    3.3566    0.0000 H   0  0  0  0  0  0  0  0  0  0  0  0
   -0.5379    4.2131    0.0000 H   0  0  0  0  0  0  0  0  0  0  0  0
   -1.1194    4.2435    0.0000 H   0  0  0  0  0  0  0  0  0  0  0  0
   -1.7418    4.2810    0.0000 H   0  0  0  0  0  0  0  0  0  0  0  0
   -2.3831    3.9108    0.0000 H   0  0  0  0  0  0  0  0  0  0  0  0
   -2.6367    3.3749    0.0000 H   0  0  0  0  0  0  0  0  0  0  0  0
   -2.9188    2.8862    0.0000 H   0  0  0  0  0  0  0  0  0  0  0  0
   -1.6939   -0.8294    0.0000 H   0  0  0  0  0  0  0  0  0  0  0  0
  2  1  4  0  0  0  0
  3  2  4  0  0  0  0
  4  3  4  0  0  0  0
  5  4  4  0  0  0  0
  6  5  4  0  0  0  0
  4  7  1  0  0  0  0
  7  8  1  0  0  0  0
  8  9  1  0  0  0  0
  9 10  2  0  0  0  0
  9 11  1  0  0  0  0
 11 12  1  0  0  0  0
 12 13  1  0  0  0  0
 14 13  1  0  0  0  0
 15 14  1  0  0  0  0
 16 15  1  0  0  0  0
 17 16  1  0  0  0  0
 18 17  1  0  0  0  0
 12 19  1  0  0  0  0
 19 20  2  0  0  0  0
 19 21  1  0  0  0  0
  1  6  4  0  0  0  0
 13 18  1  0  0  0  0
  1 22  1  0  0  0  0
  2 23  1  0  0  0  0
  3 24  1  0  0  0  0
  5 25  1  0  0  0  0
  6 26  1  0  0  0  0
  7 27  1  0  0  0  0
  7 28  1  0  0  0  0
 11 29  1  0  0  0  0
 12 30  1  0  0  0  0
 13 31  1  0  0  0  0
 14 32  1  0  0  0  0
 14 33  1  0  0  0  0
 15 34  1  0  0  0  0
 15 35  1  0  0  0  0
 16 36  1  0  0  0  0
 16 37  1  0  0  0  0
 17 38  1  0  0  0  0
 17 39  1  0  0  0  0
 18 40  1  0  0  0  0
 18 41  1  0  0  0  0
 21 42  1  0  0  0  0
M  END
>  <id_input>
74

>  <InChIKey>
CUSYTUPJAYLNFQ-UHFFFAOYSA-N

>  <substance_name>
(2S)-2-{[(benzyloxy)carbonyl]amino}-2-cyclohexylacetic acid

>  <casrn>
69901-75-3

>  <Molecular weight>
291.3422546386719

>  <guideline>
OECD Guideline 404 (Acute Dermal Irritation / Corrosion)

>  <species>
rabbit

>  <type_of_coverage>
semiocclusive

>  <max_duration(hrs)>
4.0

>  <vehicle>
water

>  <edema/ erythema score>
0.1

>  <max_score>
4.0

>  <reversibility>
0.0

>  <Outcome>
0

>  <StandardizerResult>
Remove Explicit Hydrogens (ID: RemoveExplicitH)
Dearomatize (ID: Dearomatize)
Clear Stereo (ID: ClearStereo)
Wedge Clean (ID: WedgeClean)
Mesomerize (ID: Mesomerize)
Tautomerize (ID: Tautomerize)
Aromatize (ID: Aromatize)
Add Explicit Hydrogens (ID: AddExplicitH)
Neutralize (ID: Neutralize)
Clean 2D (ID: Clean2D)


$$$$

  Mrv1812 02121911042D          

 42 43  0  0  0  0            999 V2000
   -4.7416   -4.9685    0.0000 O   0  0  0  0  0  0  0  0  0  0  0  0
   -4.0271   -4.5560    0.0000 N   0  0  0  0  0  0  0  0  0  0  0  0
   -3.3126   -4.9685    0.0000 O   0  0  0  0  0  0  0  0  0  0  0  0
   -4.0271   -3.7310    0.0000 C   0  0  0  0  0  0  0  0  0  0  0  0
   -3.3126   -3.3185    0.0000 C   0  0  0  0  0  0  0  0  0  0  0  0
   -3.3126   -2.4935    0.0000 C   0  0  0  0  0  0  0  0  0  0  0  0
   -4.0271   -2.0810    0.0000 C   0  0  0  0  0  0  0  0  0  0  0  0
   -4.0271   -1.2560    0.0000 N   0  0  0  0  0  0  0  0  0  0  0  0
   -3.3126   -0.8435    0.0000 N   0  0  0  0  0  0  0  0  0  0  0  0
   -3.3126   -0.0185    0.0000 C   0  0  0  0  0  0  0  0  0  0  0  0
   -2.5982    0.3940    0.0000 C   0  0  0  0  0  0  0  0  0  0  0  0
   -2.5982    1.2190    0.0000 C   0  0  0  0  0  0  0  0  0  0  0  0
   -3.3126    1.6315    0.0000 C   0  0  0  0  0  0  0  0  0  0  0  0
   -4.0271    1.2190    0.0000 C   0  0  0  0  0  0  0  0  0  0  0  0
   -4.0271    0.3940    0.0000 C   0  0  0  0  0  0  0  0  0  0  0  0
   -3.3126    2.4565    0.0000 N   0  0  0  0  0  0  0  0  0  0  0  0
   -4.0271    2.8690    0.0000 C   0  0  0  0  0  0  0  0  0  0  0  0
   -4.0271    3.6940    0.0000 C   0  0  0  0  0  0  0  0  0  0  0  0
   -4.7416    4.1065    0.0000 C   0  0  0  0  0  0  0  0  0  0  0  0
   -5.4560    4.5190    0.0000 N   0  0  0  0  0  0  0  0  0  0  0  0
   -2.5982    2.8690    0.0000 C   0  0  0  0  0  0  0  0  0  0  0  0
   -2.5982    3.6940    0.0000 C   0  0  0  0  0  0  0  0  0  0  0  0
   -1.8837    4.1065    0.0000 C   0  0  0  0  0  0  0  0  0  0  0  0
   -1.1692    4.5190    0.0000 N   0  0  0  0  0  0  0  0  0  0  0  0
   -4.7416   -2.4935    0.0000 C   0  0  0  0  0  0  0  0  0  0  0  0
   -5.4560   -2.0810    0.0000 Cl  0  0  0  0  0  0  0  0  0  0  0  0
   -4.7416   -3.3185    0.0000 C   0  0  0  0  0  0  0  0  0  0  0  0
   -2.5982   -3.7310    0.0000 H   0  0  0  0  0  0  0  0  0  0  0  0
   -2.5982   -2.0810    0.0000 H   0  0  0  0  0  0  0  0  0  0  0  0
   -1.8837   -0.0185    0.0000 H   0  0  0  0  0  0  0  0  0  0  0  0
   -1.8837    1.6315    0.0000 H   0  0  0  0  0  0  0  0  0  0  0  0
   -4.7416    1.6315    0.0000 H   0  0  0  0  0  0  0  0  0  0  0  0
   -4.7416   -0.0185    0.0000 H   0  0  0  0  0  0  0  0  0  0  0  0
   -4.8507    2.8211    0.0000 H   0  0  0  0  0  0  0  0  0  0  0  0
   -4.4804    2.1798    0.0000 H   0  0  0  0  0  0  0  0  0  0  0  0
   -3.2035    3.7420    0.0000 H   0  0  0  0  0  0  0  0  0  0  0  0
   -3.5737    4.3833    0.0000 H   0  0  0  0  0  0  0  0  0  0  0  0
   -2.1448    2.1798    0.0000 H   0  0  0  0  0  0  0  0  0  0  0  0
   -1.7745    2.8211    0.0000 H   0  0  0  0  0  0  0  0  0  0  0  0
   -2.7800    4.4988    0.0000 H   0  0  0  0  0  0  0  0  0  0  0  0
   -1.8837    3.2815    0.0000 H   0  0  0  0  0  0  0  0  0  0  0  0
   -5.4560   -3.7310    0.0000 H   0  0  0  0  0  0  0  0  0  0  0  0
  1  2  2  0  0  0  0
  2  3  2  0  0  0  0
  2  4  1  0  0  0  0
  5  4  4  0  0  0  0
  6  5  4  0  0  0  0
  7  6  4  0  0  0  0
  8  7  1  4  0  0  0
  8  9  2  0  0  0  0
  9 10  1  0  0  0  0
 11 10  4  0  0  0  0
 12 11  4  0  0  0  0
 13 12  4  0  0  0  0
 14 13  4  0  0  0  0
 15 14  4  0  0  0  0
 13 16  1  0  0  0  0
 16 17  1  0  0  0  0
 17 18  1  0  0  0  0
 18 19  1  0  0  0  0
 19 20  3  0  0  0  0
 16 21  1  0  0  0  0
 21 22  1  0  0  0  0
 22 23  1  0  0  0  0
 23 24  3  0  0  0  0
 25  7  4  0  0  0  0
 25 26  1  0  0  0  0
 27 25  4  0  0  0  0
  4 27  4  0  0  0  0
 10 15  4  0  0  0  0
  5 28  1  0  0  0  0
  6 29  1  0  0  0  0
 11 30  1  0  0  0  0
 12 31  1  0  0  0  0
 14 32  1  0  0  0  0
 15 33  1  0  0  0  0
 17 34  1  0  0  0  0
 17 35  1  0  0  0  0
 18 36  1  0  0  0  0
 18 37  1  0  0  0  0
 21 38  1  0  0  0  0
 21 39  1  0  0  0  0
 22 40  1  0  0  0  0
 22 41  1  0  0  0  0
 27 42  1  0  0  0  0
M  END
>  <id_input>
2638

>  <InChIKey>
ZXXVVTBKBDDTSE-UHFFFAOYSA-N

>  <substance_name>
3,3'-[[4-[(2-chloro-4-nitrophenyl)azo]phenyl]imino]bis[propiononitrile]

>  <casrn>
4058-30-4

>  <Molecular weight>
382.8037109375

>  <guideline>
OECD Guideline 404 (Acute Dermal Irritation / Corrosion)

>  <species>
rabbit

>  <type_of_coverage>
semiocclusive

>  <max_duration(hrs)>
4.0

>  <vehicle>
not specified

>  <edema/ erythema score>
0.0

>  <max_score>
0.0

>  <reversibility>
0.0

>  <Outcome>
0

>  <StandardizerResult>
Remove Explicit Hydrogens (ID: RemoveExplicitH)
Dearomatize (ID: Dearomatize)
Clear Stereo (ID: ClearStereo)
Wedge Clean (ID: WedgeClean)
Mesomerize (ID: Mesomerize)
Tautomerize (ID: Tautomerize)
Aromatize (ID: Aromatize)
Add Explicit Hydrogens (ID: AddExplicitH)
Neutralize (ID: Neutralize)
Clean 2D (ID: Clean2D)


$$$$

  Mrv1812 02121911042D          

 24 24  0  0  0  0            999 V2000
    1.1591    0.8560    0.0000 Cl  0  0  0  0  0  0  0  0  0  0  0  0
    0.4446    0.4435    0.0000 C   0  0  0  0  0  0  0  0  0  0  0  0
   -0.2698    0.8560    0.0000 C   0  0  0  0  0  0  0  0  0  0  0  0
   -0.9843    0.4435    0.0000 C   0  0  0  0  0  0  0  0  0  0  0  0
   -1.6988    0.8560    0.0000 N   0  0  0  0  0  0  0  0  0  0  0  0
   -1.6988    1.6810    0.0000 C   0  0  0  0  0  0  0  0  0  0  0  0
   -2.4132    2.0935    0.0000 C   0  0  0  0  0  0  0  0  0  0  0  0
   -0.9843    2.0935    0.0000 O   0  0  0  0  0  0  0  0  0  0  0  0
   -0.9843   -0.3815    0.0000 C   0  0  0  0  0  0  0  0  0  0  0  0
   -1.6988   -0.7940    0.0000 Cl  0  0  0  0  0  0  0  0  0  0  0  0
   -0.2698   -0.7940    0.0000 C   0  0  0  0  0  0  0  0  0  0  0  0
    0.4446   -0.3815    0.0000 N   0  0  0  0  0  0  0  0  0  0  0  0
   -0.2698   -1.6190    0.0000 C   0  0  0  0  0  0  0  0  0  0  0  0
    0.4446   -2.0315    0.0000 O   0  0  0  0  0  0  0  0  0  0  0  0
   -0.9843   -2.0315    0.0000 O   0  0  0  0  0  0  0  0  0  0  0  0
   -0.9843   -2.8565    0.0000 C   0  0  0  0  0  0  0  0  0  0  0  0
   -0.2698    1.6810    0.0000 H   0  0  0  0  0  0  0  0  0  0  0  0
   -2.4132    0.4435    0.0000 H   0  0  0  0  0  0  0  0  0  0  0  0
   -2.0007    2.8080    0.0000 H   0  0  0  0  0  0  0  0  0  0  0  0
   -3.1277    2.5060    0.0000 H   0  0  0  0  0  0  0  0  0  0  0  0
   -2.8257    1.3790    0.0000 H   0  0  0  0  0  0  0  0  0  0  0  0
   -1.8093   -2.8565    0.0000 H   0  0  0  0  0  0  0  0  0  0  0  0
   -0.9843   -3.6815    0.0000 H   0  0  0  0  0  0  0  0  0  0  0  0
   -0.1593   -2.8565    0.0000 H   0  0  0  0  0  0  0  0  0  0  0  0
  1  2  1  0  0  0  0
  3  2  4  0  0  0  0
  4  3  4  0  0  0  0
  4  5  1  0  0  0  0
  5  6  1  0  0  0  0
  6  7  1  0  0  0  0
  6  8  2  0  0  0  0
  9  4  4  0  0  0  0
  9 10  1  0  0  0  0
 11  9  4  0  0  0  0
 12 11  4  0  0  0  0
 11 13  1  0  0  0  0
 13 14  2  0  0  0  0
 13 15  1  0  0  0  0
 15 16  1  0  0  0  0
  2 12  4  0  0  0  0
  3 17  1  0  0  0  0
  5 18  1  0  0  0  0
  7 19  1  0  0  0  0
  7 20  1  0  0  0  0
  7 21  1  0  0  0  0
 16 22  1  0  0  0  0
 16 23  1  0  0  0  0
 16 24  1  0  0  0  0
M  END
>  <id_input>
1596

>  <InChIKey>
CSKIJJZFXAACON-UHFFFAOYSA-N

>  <substance_name>
-

>  <casrn>
350601-49-9

>  <Molecular weight>
263.0774230957031

>  <guideline>
OECD Guideline 404 (Acute Dermal Irritation / Corrosion)

>  <species>
rabbit

>  <type_of_coverage>
semiocclusive

>  <max_duration(hrs)>
4.0

>  <vehicle>
unchanged (no vehicle)

>  <edema/ erythema score>
0.0

>  <max_score>
4.0

>  <reversibility>
0.0

>  <Outcome>
0

>  <StandardizerResult>
Remove Explicit Hydrogens (ID: RemoveExplicitH)
Dearomatize (ID: Dearomatize)
Clear Stereo (ID: ClearStereo)
Wedge Clean (ID: WedgeClean)
Mesomerize (ID: Mesomerize)
Tautomerize (ID: Tautomerize)
Aromatize (ID: Aromatize)
Add Explicit Hydrogens (ID: AddExplicitH)
Neutralize (ID: Neutralize)
Clean 2D (ID: Clean2D)


$$$$

  Mrv1812 02121911042D          

 62 64  0  0  0  0            999 V2000
   -2.2487   -1.0195    0.0000 C   0  0  0  0  0  0  0  0  0  0  0  0
   -2.6612   -1.7340    0.0000 C   0  0  0  0  0  0  0  0  0  0  0  0
   -2.2487   -2.4485    0.0000 N   0  0  0  0  0  0  0  0  0  0  0  0
   -1.4237   -2.4485    0.0000 C   0  0  0  0  0  0  0  0  0  0  0  0
   -1.0112   -1.7340    0.0000 C   0  0  0  0  0  0  0  0  0  0  0  0
   -0.1862   -1.7340    0.0000 O   0  0  0  0  0  0  0  0  0  0  0  0
    0.2263   -1.0195    0.0000 C   0  0  0  0  0  0  0  0  0  0  0  0
    1.0513   -1.0195    0.0000 C   0  0  0  0  0  0  0  0  0  0  0  0
    1.4638   -0.3051    0.0000 C   0  0  0  0  0  0  0  0  0  0  0  0
    1.0513    0.4094    0.0000 C   0  0  0  0  0  0  0  0  0  0  0  0
    0.2263    0.4094    0.0000 C   0  0  0  0  0  0  0  0  0  0  0  0
   -0.1862   -0.3051    0.0000 C   0  0  0  0  0  0  0  0  0  0  0  0
    1.4638    1.1239    0.0000 C   0  0  0  0  0  0  0  0  0  0  0  0
    2.2888    1.1239    0.0000 C   0  0  0  0  0  0  0  0  0  0  0  0
    2.7013    1.8384    0.0000 C   0  0  0  0  0  0  0  0  0  0  0  0
    2.2888    2.5528    0.0000 C   0  0  0  0  0  0  0  0  0  0  0  0
    1.4638    2.5528    0.0000 C   0  0  0  0  0  0  0  0  0  0  0  0
    1.0513    1.8384    0.0000 C   0  0  0  0  0  0  0  0  0  0  0  0
   -2.6612   -3.1629    0.0000 C   0  0  0  0  0  0  0  0  0  0  0  0
   -3.4862   -3.1629    0.0000 C   0  0  0  0  0  0  0  0  0  0  0  0
   -3.8987   -3.8774    0.0000 C   0  0  0  0  0  0  0  0  0  0  0  0
   -3.4862   -4.5919    0.0000 C   0  0  0  0  0  0  0  0  0  0  0  0
   -3.8987   -5.3064    0.0000 C   0  0  0  0  0  0  0  0  0  0  0  0
   -4.7237   -5.3064    0.0000 C   0  0  0  0  0  0  0  0  0  0  0  0
   -5.1362   -6.0208    0.0000 C   0  0  0  0  0  0  0  0  0  0  0  0
   -5.5487   -6.7353    0.0000 N   0  0  0  0  0  0  0  0  0  0  0  0
   -5.1362   -4.5919    0.0000 C   0  0  0  0  0  0  0  0  0  0  0  0
   -5.5487   -3.8774    0.0000 N   0  0  0  0  0  0  0  0  0  0  0  0
   -2.6612   -4.5919    0.0000 C   0  0  0  0  0  0  0  0  0  0  0  0
   -2.2487   -5.3064    0.0000 C   0  0  0  0  0  0  0  0  0  0  0  0
   -2.2487   -3.8774    0.0000 C   0  0  0  0  0  0  0  0  0  0  0  0
   -1.5343   -1.4320    0.0000 H   0  0  0  0  0  0  0  0  0  0  0  0
   -1.8362   -0.3051    0.0000 H   0  0  0  0  0  0  0  0  0  0  0  0
   -2.9632   -0.6070    0.0000 H   0  0  0  0  0  0  0  0  0  0  0  0
   -3.3985   -1.3637    0.0000 H   0  0  0  0  0  0  0  0  0  0  0  0
   -3.3985   -2.1043    0.0000 H   0  0  0  0  0  0  0  0  0  0  0  0
   -1.3758   -3.2721    0.0000 H   0  0  0  0  0  0  0  0  0  0  0  0
   -0.7345   -2.9018    0.0000 H   0  0  0  0  0  0  0  0  0  0  0  0
   -0.7977   -0.9371    0.0000 H   0  0  0  0  0  0  0  0  0  0  0  0
   -0.5987   -2.4485    0.0000 H   0  0  0  0  0  0  0  0  0  0  0  0
    1.4638   -1.7340    0.0000 H   0  0  0  0  0  0  0  0  0  0  0  0
    2.2888   -0.3051    0.0000 H   0  0  0  0  0  0  0  0  0  0  0  0
   -0.1862    1.1239    0.0000 H   0  0  0  0  0  0  0  0  0  0  0  0
   -0.8449    0.1917    0.0000 H   0  0  0  0  0  0  0  0  0  0  0  0
    1.8763    0.4094    0.0000 H   0  0  0  0  0  0  0  0  0  0  0  0
    2.8191    0.4919    0.0000 H   0  0  0  0  0  0  0  0  0  0  0  0
    3.1012    0.9806    0.0000 H   0  0  0  0  0  0  0  0  0  0  0  0
    3.5202    1.9381    0.0000 H   0  0  0  0  0  0  0  0  0  0  0  0
    3.2527    2.4520    0.0000 H   0  0  0  0  0  0  0  0  0  0  0  0
    2.6197    3.3085    0.0000 H   0  0  0  0  0  0  0  0  0  0  0  0
    2.0382    3.3389    0.0000 H   0  0  0  0  0  0  0  0  0  0  0  0
    1.4158    3.3764    0.0000 H   0  0  0  0  0  0  0  0  0  0  0  0
    0.7745    3.0062    0.0000 H   0  0  0  0  0  0  0  0  0  0  0  0
    0.3140    2.2086    0.0000 H   0  0  0  0  0  0  0  0  0  0  0  0
    0.3140    1.4681    0.0000 H   0  0  0  0  0  0  0  0  0  0  0  0
   -3.8987   -2.4485    0.0000 H   0  0  0  0  0  0  0  0  0  0  0  0
   -4.7237   -3.8774    0.0000 H   0  0  0  0  0  0  0  0  0  0  0  0
   -3.4862   -6.0208    0.0000 H   0  0  0  0  0  0  0  0  0  0  0  0
   -2.9632   -5.7189    0.0000 H   0  0  0  0  0  0  0  0  0  0  0  0
   -1.8362   -6.0208    0.0000 H   0  0  0  0  0  0  0  0  0  0  0  0
   -1.5343   -4.8939    0.0000 H   0  0  0  0  0  0  0  0  0  0  0  0
   -1.4237   -3.8774    0.0000 H   0  0  0  0  0  0  0  0  0  0  0  0
  1  2  1  0  0  0  0
  2  3  1  0  0  0  0
  3  4  1  0  0  0  0
  4  5  1  0  0  0  0
  5  6  1  0  0  0  0
  6  7  1  0  0  0  0
  8  7  4  0  0  0  0
  9  8  4  0  0  0  0
 10  9  4  0  0  0  0
 11 10  4  0  0  0  0
 12 11  4  0  0  0  0
 10 13  1  0  0  0  0
 14 13  1  0  0  0  0
 15 14  1  0  0  0  0
 16 15  1  0  0  0  0
 17 16  1  0  0  0  0
 18 17  1  0  0  0  0
  3 19  1  0  0  0  0
 20 19  4  0  0  0  0
 21 20  4  0  0  0  0
 22 21  4  0  0  0  0
 23 22  1  0  0  0  0
 23 24  2  0  0  0  0
 24 25  1  0  0  0  0
 25 26  3  0  0  0  0
 24 27  1  0  0  0  0
 27 28  3  0  0  0  0
 29 22  4  0  0  0  0
 29 30  1  0  0  0  0
 31 29  4  0  0  0  0
  7 12  4  0  0  0  0
 13 18  1  0  0  0  0
 19 31  4  0  0  0  0
  1 32  1  0  0  0  0
  1 33  1  0  0  0  0
  1 34  1  0  0  0  0
  2 35  1  0  0  0  0
  2 36  1  0  0  0  0
  4 37  1  0  0  0  0
  4 38  1  0  0  0  0
  5 39  1  0  0  0  0
  5 40  1  0  0  0  0
  8 41  1  0  0  0  0
  9 42  1  0  0  0  0
 11 43  1  0  0  0  0
 12 44  1  0  0  0  0
 13 45  1  0  0  0  0
 14 46  1  0  0  0  0
 14 47  1  0  0  0  0
 15 48  1  0  0  0  0
 15 49  1  0  0  0  0
 16 50  1  0  0  0  0
 16 51  1  0  0  0  0
 17 52  1  0  0  0  0
 17 53  1  0  0  0  0
 18 54  1  0  0  0  0
 18 55  1  0  0  0  0
 20 56  1  0  0  0  0
 21 57  1  0  0  0  0
 23 58  1  0  0  0  0
 30 59  1  0  0  0  0
 30 60  1  0  0  0  0
 30 61  1  0  0  0  0
 31 62  1  0  0  0  0
M  END
>  <id_input>
2248

>  <InChIKey>
NQAJBKZEQYYFGK-UHFFFAOYSA-N

>  <substance_name>
2-[(4-{[2-(4-cyclohexylphenoxy)ethyl](ethyl)amino}-2-methylphenyl)methylidene]propanedinitrile

>  <casrn>
54079-53-7

>  <Molecular weight>
413.5545349121094

>  <guideline>
other: as mentioned below

>  <species>
rabbit

>  <type_of_coverage>
occlusive

>  <max_duration(hrs)>
24.0

>  <vehicle>
not specified

>  <edema/ erythema score>
0.0

>  <reversibility>
0.0

>  <Outcome>
0

>  <StandardizerResult>
Remove Explicit Hydrogens (ID: RemoveExplicitH)
Dearomatize (ID: Dearomatize)
Clear Stereo (ID: ClearStereo)
Wedge Clean (ID: WedgeClean)
Mesomerize (ID: Mesomerize)
Tautomerize (ID: Tautomerize)
Aromatize (ID: Aromatize)
Add Explicit Hydrogens (ID: AddExplicitH)
Neutralize (ID: Neutralize)
Clean 2D (ID: Clean2D)


$$$$

  Mrv1812 02121911042D          

 70 74  0  0  0  0            999 V2000
   -0.4822   -5.6609    0.0000 C   0  0  0  0  0  0  0  0  0  0  0  0
    0.2322   -5.2484    0.0000 N   0  0  0  0  0  0  0  0  0  0  0  0
    0.9467   -5.6609    0.0000 C   0  0  0  0  0  0  0  0  0  0  0  0
    0.2322   -4.4234    0.0000 C   0  0  0  0  0  0  0  0  0  0  0  0
    0.9467   -4.0109    0.0000 C   0  0  0  0  0  0  0  0  0  0  0  0
    0.9467   -3.1859    0.0000 C   0  0  0  0  0  0  0  0  0  0  0  0
    0.2322   -2.7734    0.0000 C   0  0  0  0  0  0  0  0  0  0  0  0
   -0.4822   -3.1859    0.0000 C   0  0  0  0  0  0  0  0  0  0  0  0
   -0.4822   -4.0109    0.0000 C   0  0  0  0  0  0  0  0  0  0  0  0
    0.2322   -1.9484    0.0000 C   0  0  0  0  0  0  0  0  0  0  0  0
    1.0572   -1.9484    0.0000 O   0  0  0  0  0  0  0  0  0  0  0  0
   -0.5928   -1.9484    0.0000 C   0  0  0  0  0  0  0  0  0  0  0  0
   -1.0053   -1.2339    0.0000 C   0  0  0  0  0  0  0  0  0  0  0  0
   -1.8303   -1.2339    0.0000 C   0  0  0  0  0  0  0  0  0  0  0  0
   -2.2428   -1.9484    0.0000 C   0  0  0  0  0  0  0  0  0  0  0  0
   -1.8303   -2.6628    0.0000 C   0  0  0  0  0  0  0  0  0  0  0  0
   -1.0053   -2.6628    0.0000 C   0  0  0  0  0  0  0  0  0  0  0  0
   -3.0678   -1.9484    0.0000 N   0  0  0  0  0  0  0  0  0  0  0  0
   -3.4803   -2.6628    0.0000 C   0  0  0  0  0  0  0  0  0  0  0  0
   -3.4803   -1.2339    0.0000 C   0  0  0  0  0  0  0  0  0  0  0  0
    0.2322   -1.1234    0.0000 C   0  0  0  0  0  0  0  0  0  0  0  0
   -0.4822   -0.7109    0.0000 C   0  0  0  0  0  0  0  0  0  0  0  0
   -0.4822    0.1141    0.0000 C   0  0  0  0  0  0  0  0  0  0  0  0
    0.2322    0.5266    0.0000 C   0  0  0  0  0  0  0  0  0  0  0  0
    0.2322    1.3516    0.0000 N   0  0  0  0  0  0  0  0  0  0  0  0
   -0.4822    1.7641    0.0000 C   0  0  0  0  0  0  0  0  0  0  0  0
   -0.4822    2.5891    0.0000 C   0  0  0  0  0  0  0  0  0  0  0  0
   -1.1967    3.0016    0.0000 C   0  0  0  0  0  0  0  0  0  0  0  0
   -1.9112    2.5891    0.0000 C   0  0  0  0  0  0  0  0  0  0  0  0
   -1.9112    1.7641    0.0000 C   0  0  0  0  0  0  0  0  0  0  0  0
   -1.1967    1.3516    0.0000 C   0  0  0  0  0  0  0  0  0  0  0  0
    0.9467    0.1141    0.0000 C   0  0  0  0  0  0  0  0  0  0  0  0
    1.6612    0.5266    0.0000 C   0  0  0  0  0  0  0  0  0  0  0  0
    2.3756    0.1141    0.0000 C   0  0  0  0  0  0  0  0  0  0  0  0
    2.3756   -0.7109    0.0000 C   0  0  0  0  0  0  0  0  0  0  0  0
    1.6612   -1.1234    0.0000 C   0  0  0  0  0  0  0  0  0  0  0  0
    0.9467   -0.7109    0.0000 C   0  0  0  0  0  0  0  0  0  0  0  0
   -0.8947   -4.9464    0.0000 H   0  0  0  0  0  0  0  0  0  0  0  0
   -1.1967   -6.0734    0.0000 H   0  0  0  0  0  0  0  0  0  0  0  0
   -0.0697   -6.3753    0.0000 H   0  0  0  0  0  0  0  0  0  0  0  0
    0.5342   -6.3753    0.0000 H   0  0  0  0  0  0  0  0  0  0  0  0
    1.6612   -6.0734    0.0000 H   0  0  0  0  0  0  0  0  0  0  0  0
    1.3592   -4.9464    0.0000 H   0  0  0  0  0  0  0  0  0  0  0  0
    1.6612   -4.4234    0.0000 H   0  0  0  0  0  0  0  0  0  0  0  0
    1.6612   -2.7734    0.0000 H   0  0  0  0  0  0  0  0  0  0  0  0
   -1.2444   -3.5016    0.0000 H   0  0  0  0  0  0  0  0  0  0  0  0
   -0.9179   -4.7115    0.0000 H   0  0  0  0  0  0  0  0  0  0  0  0
    1.4697   -2.6628    0.0000 H   0  0  0  0  0  0  0  0  0  0  0  0
   -1.3210   -0.4717    0.0000 H   0  0  0  0  0  0  0  0  0  0  0  0
   -2.5309   -0.7982    0.0000 H   0  0  0  0  0  0  0  0  0  0  0  0
   -2.2428   -3.3773    0.0000 H   0  0  0  0  0  0  0  0  0  0  0  0
   -1.4178   -1.9484    0.0000 H   0  0  0  0  0  0  0  0  0  0  0  0
   -4.1947   -2.2503    0.0000 H   0  0  0  0  0  0  0  0  0  0  0  0
   -3.8928   -3.3773    0.0000 H   0  0  0  0  0  0  0  0  0  0  0  0
   -2.7658   -3.0753    0.0000 H   0  0  0  0  0  0  0  0  0  0  0  0
   -2.7658   -0.8214    0.0000 H   0  0  0  0  0  0  0  0  0  0  0  0
   -3.8928   -0.5194    0.0000 H   0  0  0  0  0  0  0  0  0  0  0  0
   -4.1947   -1.6464    0.0000 H   0  0  0  0  0  0  0  0  0  0  0  0
    0.2322   -0.2984    0.0000 H   0  0  0  0  0  0  0  0  0  0  0  0
   -1.1967    0.5266    0.0000 H   0  0  0  0  0  0  0  0  0  0  0  0
    0.9467    1.7641    0.0000 H   0  0  0  0  0  0  0  0  0  0  0  0
    0.2322    3.0016    0.0000 H   0  0  0  0  0  0  0  0  0  0  0  0
   -1.1967    3.8266    0.0000 H   0  0  0  0  0  0  0  0  0  0  0  0
   -2.6257    3.0016    0.0000 H   0  0  0  0  0  0  0  0  0  0  0  0
   -2.6257    1.3516    0.0000 H   0  0  0  0  0  0  0  0  0  0  0  0
   -1.9112    0.9391    0.0000 H   0  0  0  0  0  0  0  0  0  0  0  0
    1.6612    1.3516    0.0000 H   0  0  0  0  0  0  0  0  0  0  0  0
    3.0901    0.5266    0.0000 H   0  0  0  0  0  0  0  0  0  0  0  0
    3.0901   -1.1234    0.0000 H   0  0  0  0  0  0  0  0  0  0  0  0
    1.6612   -1.9484    0.0000 H   0  0  0  0  0  0  0  0  0  0  0  0
  1  2  1  0  0  0  0
  2  3  1  0  0  0  0
  2  4  1  0  0  0  0
  5  4  4  0  0  0  0
  6  5  4  0  0  0  0
  7  6  4  0  0  0  0
  8  7  4  0  0  0  0
  9  8  4  0  0  0  0
  7 10  1  0  0  0  0
 10 11  1  0  0  0  0
 10 12  1  0  0  0  0
 13 12  4  0  0  0  0
 14 13  4  0  0  0  0
 15 14  4  0  0  0  0
 16 15  4  0  0  0  0
 17 16  4  0  0  0  0
 15 18  1  0  0  0  0
 18 19  1  0  0  0  0
 18 20  1  0  0  0  0
 10 21  1  0  0  0  0
 22 21  4  0  0  0  0
 23 22  4  0  0  0  0
 24 23  4  0  0  0  0
 24 25  1  0  0  0  0
 25 26  1  0  0  0  0
 27 26  4  0  0  0  0
 28 27  4  0  0  0  0
 29 28  4  0  0  0  0
 30 29  4  0  0  0  0
 31 30  4  0  0  0  0
 32 24  4  0  0  0  0
 32 33  4  0  0  0  0
 33 34  4  0  0  0  0
 34 35  4  0  0  0  0
 35 36  4  0  0  0  0
 36 37  4  0  0  0  0
  4  9  4  0  0  0  0
 12 17  4  0  0  0  0
 21 37  4  0  0  0  0
 26 31  4  0  0  0  0
 37 32  4  0  0  0  0
  1 38  1  0  0  0  0
  1 39  1  0  0  0  0
  1 40  1  0  0  0  0
  3 41  1  0  0  0  0
  3 42  1  0  0  0  0
  3 43  1  0  0  0  0
  5 44  1  0  0  0  0
  6 45  1  0  0  0  0
  8 46  1  0  0  0  0
  9 47  1  0  0  0  0
 11 48  1  0  0  0  0
 13 49  1  0  0  0  0
 14 50  1  0  0  0  0
 16 51  1  0  0  0  0
 17 52  1  0  0  0  0
 19 53  1  0  0  0  0
 19 54  1  0  0  0  0
 19 55  1  0  0  0  0
 20 56  1  0  0  0  0
 20 57  1  0  0  0  0
 20 58  1  0  0  0  0
 22 59  1  0  0  0  0
 23 60  1  0  0  0  0
 25 61  1  0  0  0  0
 27 62  1  0  0  0  0
 28 63  1  0  0  0  0
 29 64  1  0  0  0  0
 30 65  1  0  0  0  0
 31 66  1  0  0  0  0
 33 67  1  0  0  0  0
 34 68  1  0  0  0  0
 35 69  1  0  0  0  0
 36 70  1  0  0  0  0
M  END
>  <id_input>
113

>  <InChIKey>
WNDULEJVCPEASN-UHFFFAOYSA-N

>  <substance_name>
(4-anilino-1-naphthyl){bis[4-(dimethylamino)phenyl]}methanol

>  <casrn>
6786-83-0

>  <Molecular weight>
487.6346130371094

>  <guideline>
OECD Guideline 404 (Acute Dermal Irritation / Corrosion)

>  <species>
rabbit

>  <type_of_coverage>
other: porous gauze dressing and non-irritating tape

>  <max_duration(hrs)>
4.0

>  <vehicle>
other: distilled water

>  <edema/ erythema score>
0.556666666666666

>  <max_score>
3.0

>  <reversibility>
0.0

>  <Outcome>
0

>  <StandardizerResult>
Remove Explicit Hydrogens (ID: RemoveExplicitH)
Dearomatize (ID: Dearomatize)
Clear Stereo (ID: ClearStereo)
Wedge Clean (ID: WedgeClean)
Mesomerize (ID: Mesomerize)
Tautomerize (ID: Tautomerize)
Aromatize (ID: Aromatize)
Add Explicit Hydrogens (ID: AddExplicitH)
Neutralize (ID: Neutralize)
Clean 2D (ID: Clean2D)


$$$$

  Mrv1812 02121911042D          

 30 31  0  0  0  0            999 V2000
    2.3511   -1.9183    0.0000 C   0  0  0  0  0  0  0  0  0  0  0  0
    1.6366   -2.3308    0.0000 C   0  0  0  0  0  0  0  0  0  0  0  0
    0.9222   -1.9183    0.0000 C   0  0  0  0  0  0  0  0  0  0  0  0
    0.2077   -2.3308    0.0000 C   0  0  0  0  0  0  0  0  0  0  0  0
   -0.5068   -1.9183    0.0000 N   0  0  0  0  0  0  0  0  0  0  0  0
   -0.5068   -1.0933    0.0000 N   0  0  0  0  0  0  0  0  0  0  0  0
   -1.2213   -0.6808    0.0000 C   0  0  0  0  0  0  0  0  0  0  0  0
   -1.2213    0.1442    0.0000 C   0  0  0  0  0  0  0  0  0  0  0  0
   -1.9357    0.5567    0.0000 C   0  0  0  0  0  0  0  0  0  0  0  0
   -2.6502    0.1442    0.0000 C   0  0  0  0  0  0  0  0  0  0  0  0
   -2.6502   -0.6808    0.0000 C   0  0  0  0  0  0  0  0  0  0  0  0
   -1.9357   -1.0933    0.0000 C   0  0  0  0  0  0  0  0  0  0  0  0
   -1.9357   -1.9183    0.0000 N   0  0  0  0  0  0  0  0  0  0  0  0
   -1.2213   -2.3308    0.0000 O   0  0  0  0  0  0  0  0  0  0  0  0
   -2.6502   -2.3308    0.0000 O   0  0  0  0  0  0  0  0  0  0  0  0
    0.2077   -3.1558    0.0000 C   0  0  0  0  0  0  0  0  0  0  0  0
   -0.5068   -3.5683    0.0000 O   0  0  0  0  0  0  0  0  0  0  0  0
    0.9222   -3.5683    0.0000 C   0  0  0  0  0  0  0  0  0  0  0  0
    1.6366   -3.1558    0.0000 C   0  0  0  0  0  0  0  0  0  0  0  0
    2.7636   -2.6328    0.0000 H   0  0  0  0  0  0  0  0  0  0  0  0
    3.0656   -1.5058    0.0000 H   0  0  0  0  0  0  0  0  0  0  0  0
    1.9386   -1.2038    0.0000 H   0  0  0  0  0  0  0  0  0  0  0  0
    0.9222   -1.0933    0.0000 H   0  0  0  0  0  0  0  0  0  0  0  0
   -0.5068    0.5567    0.0000 H   0  0  0  0  0  0  0  0  0  0  0  0
   -1.9357    1.3817    0.0000 H   0  0  0  0  0  0  0  0  0  0  0  0
   -3.3647    0.5567    0.0000 H   0  0  0  0  0  0  0  0  0  0  0  0
   -3.3647   -1.0933    0.0000 H   0  0  0  0  0  0  0  0  0  0  0  0
   -1.2213   -3.1558    0.0000 H   0  0  0  0  0  0  0  0  0  0  0  0
    0.9222   -4.3933    0.0000 H   0  0  0  0  0  0  0  0  0  0  0  0
    2.3511   -3.5683    0.0000 H   0  0  0  0  0  0  0  0  0  0  0  0
  1  2  1  0  0  0  0
  3  2  4  0  0  0  0
  4  3  4  0  0  0  0
  5  4  1  4  0  0  0
  5  6  2  0  0  0  0
  6  7  1  0  0  0  0
  8  7  4  0  0  0  0
  9  8  4  0  0  0  0
 10  9  4  0  0  0  0
 11 10  4  0  0  0  0
 12 11  4  0  0  0  0
 12 13  1  0  0  0  0
 13 14  2  0  0  0  0
 13 15  2  0  0  0  0
 16  4  4  0  0  0  0
 16 17  1  0  0  0  0
 18 16  4  0  0  0  0
 19 18  4  0  0  0  0
  2 19  4  0  0  0  0
  7 12  4  0  0  0  0
  1 20  1  0  0  0  0
  1 21  1  0  0  0  0
  1 22  1  0  0  0  0
  3 23  1  0  0  0  0
  8 24  1  0  0  0  0
  9 25  1  0  0  0  0
 10 26  1  0  0  0  0
 11 27  1  0  0  0  0
 17 28  1  0  0  0  0
 18 29  1  0  0  0  0
 19 30  1  0  0  0  0
M  END
>  <id_input>
2916

>  <InChIKey>
DRPPFIRCBMBJCM-UHFFFAOYSA-N

>  <substance_name>
4-methyl-2-[(2-nitrophenyl)diazenyl]phenol

>  <casrn>
1435-71-8

>  <Molecular weight>
257.2447509765625

>  <guideline>
OECD Guideline 404 (Acute Dermal Irritation / Corrosion)

>  <species>
rabbit

>  <type_of_coverage>
semiocclusive

>  <max_duration(hrs)>
4.0

>  <vehicle>
other: A pre-test revealed that the test substance was hydrophobic. Therefore the skin of the animals was moistened with distilled water, to ensure close contact of the test substance to the skin.

>  <edema/ erythema score>
0.3

>  <max_score>
4.0

>  <reversibility>
0.0

>  <Outcome>
0

>  <StandardizerResult>
Remove Explicit Hydrogens (ID: RemoveExplicitH)
Dearomatize (ID: Dearomatize)
Clear Stereo (ID: ClearStereo)
Wedge Clean (ID: WedgeClean)
Mesomerize (ID: Mesomerize)
Tautomerize (ID: Tautomerize)
Aromatize (ID: Aromatize)
Add Explicit Hydrogens (ID: AddExplicitH)
Neutralize (ID: Neutralize)
Clean 2D (ID: Clean2D)


$$$$

  Mrv1812 02121911042D          

 64 65  0  0  0  0            999 V2000
   -4.5664   -5.1033    0.0000 N   0  0  0  0  0  0  0  0  0  0  0  0
   -4.5664   -5.9283    0.0000 C   0  0  0  0  0  0  0  0  0  0  0  0
   -5.2809   -6.3408    0.0000 N   0  0  0  0  0  0  0  0  0  0  0  0
   -5.9954   -5.9283    0.0000 C   0  0  0  0  0  0  0  0  0  0  0  0
   -5.9954   -5.1033    0.0000 C   0  0  0  0  0  0  0  0  0  0  0  0
   -6.7098   -4.6908    0.0000 C   0  0  0  0  0  0  0  0  0  0  0  0
   -7.4243   -5.1033    0.0000 C   0  0  0  0  0  0  0  0  0  0  0  0
   -8.1388   -4.6908    0.0000 Cl  0  0  0  0  0  0  0  0  0  0  0  0
   -7.4243   -5.9283    0.0000 C   0  0  0  0  0  0  0  0  0  0  0  0
   -6.7098   -6.3408    0.0000 C   0  0  0  0  0  0  0  0  0  0  0  0
   -3.8520   -6.3408    0.0000 N   0  0  0  0  0  0  0  0  0  0  0  0
   -3.1375   -5.9283    0.0000 C   0  0  0  0  0  0  0  0  0  0  0  0
   -3.1375   -5.1033    0.0000 N   0  0  0  0  0  0  0  0  0  0  0  0
   -2.4230   -6.3408    0.0000 N   0  0  0  0  0  0  0  0  0  0  0  0
   -1.7085   -5.9283    0.0000 C   0  0  0  0  0  0  0  0  0  0  0  0
   -0.9941   -6.3408    0.0000 C   0  0  0  0  0  0  0  0  0  0  0  0
   -0.2796   -5.9283    0.0000 C   0  0  0  0  0  0  0  0  0  0  0  0
    0.4349   -6.3408    0.0000 C   0  0  0  0  0  0  0  0  0  0  0  0
    1.1493   -5.9283    0.0000 C   0  0  0  0  0  0  0  0  0  0  0  0
    1.8638   -6.3408    0.0000 C   0  0  0  0  0  0  0  0  0  0  0  0
    2.5783   -5.9283    0.0000 N   0  0  0  0  0  0  0  0  0  0  0  0
    3.2928   -6.3408    0.0000 C   0  0  0  0  0  0  0  0  0  0  0  0
    3.2928   -7.1658    0.0000 N   0  0  0  0  0  0  0  0  0  0  0  0
    4.0072   -5.9283    0.0000 N   0  0  0  0  0  0  0  0  0  0  0  0
    4.7217   -6.3408    0.0000 C   0  0  0  0  0  0  0  0  0  0  0  0
    4.7217   -7.1658    0.0000 N   0  0  0  0  0  0  0  0  0  0  0  0
    5.4362   -5.9283    0.0000 N   0  0  0  0  0  0  0  0  0  0  0  0
    6.1506   -6.3408    0.0000 C   0  0  0  0  0  0  0  0  0  0  0  0
    6.1506   -7.1658    0.0000 C   0  0  0  0  0  0  0  0  0  0  0  0
    6.8651   -7.5783    0.0000 C   0  0  0  0  0  0  0  0  0  0  0  0
    7.5796   -7.1658    0.0000 C   0  0  0  0  0  0  0  0  0  0  0  0
    8.2941   -7.5783    0.0000 Cl  0  0  0  0  0  0  0  0  0  0  0  0
    7.5796   -6.3408    0.0000 C   0  0  0  0  0  0  0  0  0  0  0  0
    6.8651   -5.9283    0.0000 C   0  0  0  0  0  0  0  0  0  0  0  0
   -3.8520   -4.6908    0.0000 H   0  0  0  0  0  0  0  0  0  0  0  0
   -5.2809   -4.6908    0.0000 H   0  0  0  0  0  0  0  0  0  0  0  0
   -5.2809   -7.1658    0.0000 H   0  0  0  0  0  0  0  0  0  0  0  0
   -5.9954   -4.2783    0.0000 H   0  0  0  0  0  0  0  0  0  0  0  0
   -7.1223   -3.9763    0.0000 H   0  0  0  0  0  0  0  0  0  0  0  0
   -8.1388   -6.3408    0.0000 H   0  0  0  0  0  0  0  0  0  0  0  0
   -6.7098   -7.1658    0.0000 H   0  0  0  0  0  0  0  0  0  0  0  0
   -2.4230   -4.6908    0.0000 H   0  0  0  0  0  0  0  0  0  0  0  0
   -2.4230   -7.1658    0.0000 H   0  0  0  0  0  0  0  0  0  0  0  0
   -1.3383   -5.1911    0.0000 H   0  0  0  0  0  0  0  0  0  0  0  0
   -2.0788   -5.1911    0.0000 H   0  0  0  0  0  0  0  0  0  0  0  0
   -1.3643   -7.0780    0.0000 H   0  0  0  0  0  0  0  0  0  0  0  0
   -0.6238   -7.0780    0.0000 H   0  0  0  0  0  0  0  0  0  0  0  0
    0.0907   -5.1911    0.0000 H   0  0  0  0  0  0  0  0  0  0  0  0
   -0.6499   -5.1911    0.0000 H   0  0  0  0  0  0  0  0  0  0  0  0
    0.0646   -7.0780    0.0000 H   0  0  0  0  0  0  0  0  0  0  0  0
    0.8051   -7.0780    0.0000 H   0  0  0  0  0  0  0  0  0  0  0  0
    1.5196   -5.1911    0.0000 H   0  0  0  0  0  0  0  0  0  0  0  0
    0.7791   -5.1911    0.0000 H   0  0  0  0  0  0  0  0  0  0  0  0
    1.4936   -7.0780    0.0000 H   0  0  0  0  0  0  0  0  0  0  0  0
    2.2341   -7.0780    0.0000 H   0  0  0  0  0  0  0  0  0  0  0  0
    2.5783   -5.1033    0.0000 H   0  0  0  0  0  0  0  0  0  0  0  0
    2.5783   -7.5783    0.0000 H   0  0  0  0  0  0  0  0  0  0  0  0
    4.0072   -7.5783    0.0000 H   0  0  0  0  0  0  0  0  0  0  0  0
    5.4362   -7.5783    0.0000 H   0  0  0  0  0  0  0  0  0  0  0  0
    5.4362   -5.1033    0.0000 H   0  0  0  0  0  0  0  0  0  0  0  0
    6.1506   -7.9908    0.0000 H   0  0  0  0  0  0  0  0  0  0  0  0
    7.2776   -8.2928    0.0000 H   0  0  0  0  0  0  0  0  0  0  0  0
    8.2941   -5.9283    0.0000 H   0  0  0  0  0  0  0  0  0  0  0  0
    6.8651   -5.1033    0.0000 H   0  0  0  0  0  0  0  0  0  0  0  0
  1  2  1  0  0  0  0
  2  3  1  0  0  0  0
  3  4  1  0  0  0  0
  5  4  4  0  0  0  0
  6  5  4  0  0  0  0
  7  6  4  0  0  0  0
  7  8  1  0  0  0  0
  9  7  4  0  0  0  0
 10  9  4  0  0  0  0
  2 11  2  0  0  0  0
 11 12  1  4  0  0  0
 12 13  2  0  0  0  0
 12 14  1  0  0  0  0
 14 15  1  0  0  0  0
 15 16  1  0  0  0  0
 16 17  1  0  0  0  0
 17 18  1  0  0  0  0
 18 19  1  0  0  0  0
 19 20  1  0  0  0  0
 20 21  1  0  0  0  0
 21 22  1  0  0  0  0
 22 23  2  0  0  0  0
 24 22  1  4  0  0  0
 24 25  2  0  0  0  0
 25 26  1  0  0  0  0
 25 27  1  0  0  0  0
 27 28  1  0  0  0  0
 29 28  4  0  0  0  0
 30 29  4  0  0  0  0
 31 30  4  0  0  0  0
 31 32  1  0  0  0  0
 33 31  4  0  0  0  0
 34 33  4  0  0  0  0
  4 10  4  0  0  0  0
 28 34  4  0  0  0  0
  1 35  1  0  0  0  0
  1 36  1  0  0  0  0
  3 37  1  0  0  0  0
  5 38  1  0  0  0  0
  6 39  1  0  0  0  0
  9 40  1  0  0  0  0
 10 41  1  0  0  0  0
 13 42  1  0  0  0  0
 14 43  1  0  0  0  0
 15 44  1  0  0  0  0
 15 45  1  0  0  0  0
 16 46  1  0  0  0  0
 16 47  1  0  0  0  0
 17 48  1  0  0  0  0
 17 49  1  0  0  0  0
 18 50  1  0  0  0  0
 18 51  1  0  0  0  0
 19 52  1  0  0  0  0
 19 53  1  0  0  0  0
 20 54  1  0  0  0  0
 20 55  1  0  0  0  0
 21 56  1  0  0  0  0
 23 57  1  0  0  0  0
 26 58  1  0  0  0  0
 26 59  1  0  0  0  0
 27 60  1  0  0  0  0
 29 61  1  0  0  0  0
 30 62  1  0  0  0  0
 33 63  1  0  0  0  0
 34 64  1  0  0  0  0
M  END
>  <id_input>
3387

>  <InChIKey>
GHXZTYHSJHQHIJ-UHFFFAOYSA-N

>  <substance_name>
N',N'''-hexane-1,6-diylbis[N-(4-chlorophenyl)(imidodicarbonimidic diamide)]

>  <casrn>
55-56-1

>  <Molecular weight>
505.44659423828125

>  <guideline>
OECD Guideline 404 (Acute Dermal Irritation / Corrosion)

>  <species>
rabbit

>  <type_of_coverage>
semiocclusive

>  <max_duration(hrs)>
4.0

>  <vehicle>
water

>  <edema/ erythema score>
1.0

>  <reversibility>
0.0

>  <Outcome>
0

>  <StandardizerResult>
Remove Explicit Hydrogens (ID: RemoveExplicitH)
Dearomatize (ID: Dearomatize)
Clear Stereo (ID: ClearStereo)
Wedge Clean (ID: WedgeClean)
Mesomerize (ID: Mesomerize)
Tautomerize (ID: Tautomerize)
Aromatize (ID: Aromatize)
Add Explicit Hydrogens (ID: AddExplicitH)
Neutralize (ID: Neutralize)
Clean 2D (ID: Clean2D)


$$$$

  Mrv1812 02121911042D          

 32 33  0  0  0  0            999 V2000
    2.0520    1.3219    0.0000 C   0  0  0  0  0  0  0  0  0  0  0  0
    1.3376    1.7344    0.0000 O   0  0  0  0  0  0  0  0  0  0  0  0
    0.6231    1.3219    0.0000 C   0  0  0  0  0  0  0  0  0  0  0  0
   -0.0914    1.7344    0.0000 C   0  0  0  0  0  0  0  0  0  0  0  0
   -0.8059    1.3219    0.0000 C   0  0  0  0  0  0  0  0  0  0  0  0
   -0.8059    0.4969    0.0000 C   0  0  0  0  0  0  0  0  0  0  0  0
   -0.0914    0.0844    0.0000 C   0  0  0  0  0  0  0  0  0  0  0  0
    0.6231    0.4969    0.0000 C   0  0  0  0  0  0  0  0  0  0  0  0
    1.3376    0.0844    0.0000 N   0  0  0  0  0  0  0  0  0  0  0  0
   -1.5203    0.0844    0.0000 C   0  0  0  0  0  0  0  0  0  0  0  0
   -1.5203   -0.7406    0.0000 O   0  0  0  0  0  0  0  0  0  0  0  0
   -2.2348    0.4969    0.0000 N   0  0  0  0  0  0  0  0  0  0  0  0
   -2.9493    0.0844    0.0000 C   0  0  0  0  0  0  0  0  0  0  0  0
   -3.6637    0.4969    0.0000 C   0  0  0  0  0  0  0  0  0  0  0  0
   -4.3782    0.0844    0.0000 C   0  0  0  0  0  0  0  0  0  0  0  0
   -4.3782   -0.7406    0.0000 C   0  0  0  0  0  0  0  0  0  0  0  0
   -3.6637   -1.1531    0.0000 C   0  0  0  0  0  0  0  0  0  0  0  0
   -2.9493   -0.7406    0.0000 C   0  0  0  0  0  0  0  0  0  0  0  0
    1.6395    0.6075    0.0000 H   0  0  0  0  0  0  0  0  0  0  0  0
    2.7665    0.9094    0.0000 H   0  0  0  0  0  0  0  0  0  0  0  0
    2.4645    2.0364    0.0000 H   0  0  0  0  0  0  0  0  0  0  0  0
   -0.0914    2.5594    0.0000 H   0  0  0  0  0  0  0  0  0  0  0  0
   -1.5203    1.7344    0.0000 H   0  0  0  0  0  0  0  0  0  0  0  0
   -0.0914   -0.7406    0.0000 H   0  0  0  0  0  0  0  0  0  0  0  0
    1.1240   -0.7124    0.0000 H   0  0  0  0  0  0  0  0  0  0  0  0
    1.9209   -0.4989    0.0000 H   0  0  0  0  0  0  0  0  0  0  0  0
   -2.2348    1.3219    0.0000 H   0  0  0  0  0  0  0  0  0  0  0  0
   -3.6637    1.3219    0.0000 H   0  0  0  0  0  0  0  0  0  0  0  0
   -5.0927    0.4969    0.0000 H   0  0  0  0  0  0  0  0  0  0  0  0
   -5.0927   -1.1531    0.0000 H   0  0  0  0  0  0  0  0  0  0  0  0
   -3.6637   -1.9781    0.0000 H   0  0  0  0  0  0  0  0  0  0  0  0
   -2.2348   -1.1531    0.0000 H   0  0  0  0  0  0  0  0  0  0  0  0
  1  2  1  0  0  0  0
  2  3  1  0  0  0  0
  4  3  4  0  0  0  0
  5  4  4  0  0  0  0
  6  5  4  0  0  0  0
  7  6  4  0  0  0  0
  8  7  4  0  0  0  0
  8  9  1  0  0  0  0
  6 10  1  0  0  0  0
 10 11  2  0  0  0  0
 10 12  1  0  0  0  0
 12 13  1  0  0  0  0
 14 13  4  0  0  0  0
 15 14  4  0  0  0  0
 16 15  4  0  0  0  0
 17 16  4  0  0  0  0
 18 17  4  0  0  0  0
  3  8  4  0  0  0  0
 13 18  4  0  0  0  0
  1 19  1  0  0  0  0
  1 20  1  0  0  0  0
  1 21  1  0  0  0  0
  4 22  1  0  0  0  0
  5 23  1  0  0  0  0
  7 24  1  0  0  0  0
  9 25  1  0  0  0  0
  9 26  1  0  0  0  0
 12 27  1  0  0  0  0
 14 28  1  0  0  0  0
 15 29  1  0  0  0  0
 16 30  1  0  0  0  0
 17 31  1  0  0  0  0
 18 32  1  0  0  0  0
M  END
>  <id_input>
2724

>  <InChIKey>
LHMQDVIHBXWNII-UHFFFAOYSA-N

>  <substance_name>
3-amino-4-methoxy-N-phenylbenzamide

>  <casrn>
120-35-4

>  <Molecular weight>
242.27316284179688

>  <guideline>
OECD Guideline 404 (Acute Dermal Irritation / Corrosion)

>  <species>
rabbit

>  <type_of_coverage>
semiocclusive

>  <max_duration(hrs)>
4.0

>  <vehicle>
other: Polyethyleneglycol 400

>  <edema/ erythema score>
0.1

>  <max_score>
4.0

>  <reversibility>
0.0

>  <Outcome>
0

>  <StandardizerResult>
Remove Explicit Hydrogens (ID: RemoveExplicitH)
Dearomatize (ID: Dearomatize)
Clear Stereo (ID: ClearStereo)
Wedge Clean (ID: WedgeClean)
Mesomerize (ID: Mesomerize)
Tautomerize (ID: Tautomerize)
Aromatize (ID: Aromatize)
Add Explicit Hydrogens (ID: AddExplicitH)
Neutralize (ID: Neutralize)
Clean 2D (ID: Clean2D)


$$$$

  Mrv1812 02121911042D          

 32 32  0  0  0  0            999 V2000
   -2.6375   -3.2203    0.0000 C   0  0  0  0  0  0  0  0  0  0  0  0
   -1.9230   -2.8078    0.0000 O   0  0  0  0  0  0  0  0  0  0  0  0
   -1.9230   -1.9828    0.0000 C   0  0  0  0  0  0  0  0  0  0  0  0
   -1.2085   -1.5703    0.0000 C   0  0  0  0  0  0  0  0  0  0  0  0
   -1.2085   -0.7453    0.0000 C   0  0  0  0  0  0  0  0  0  0  0  0
   -0.4941   -0.3328    0.0000 N   0  0  0  0  0  0  0  0  0  0  0  0
    0.2204   -0.7453    0.0000 C   0  0  0  0  0  0  0  0  0  0  0  0
    0.2204   -1.5703    0.0000 O   0  0  0  0  0  0  0  0  0  0  0  0
    0.9349   -0.3328    0.0000 C   0  0  0  0  0  0  0  0  0  0  0  0
    1.6493   -0.7453    0.0000 C   0  0  0  0  0  0  0  0  0  0  0  0
    2.3638   -0.3328    0.0000 C   0  0  0  0  0  0  0  0  0  0  0  0
    1.6493   -1.5703    0.0000 O   0  0  0  0  0  0  0  0  0  0  0  0
   -1.9230   -0.3328    0.0000 C   0  0  0  0  0  0  0  0  0  0  0  0
   -1.9230    0.4922    0.0000 O   0  0  0  0  0  0  0  0  0  0  0  0
   -2.6375    0.9047    0.0000 C   0  0  0  0  0  0  0  0  0  0  0  0
   -2.6375   -0.7453    0.0000 C   0  0  0  0  0  0  0  0  0  0  0  0
   -2.6375   -1.5703    0.0000 C   0  0  0  0  0  0  0  0  0  0  0  0
   -3.3520   -1.9828    0.0000 Cl  0  0  0  0  0  0  0  0  0  0  0  0
   -3.0500   -2.5058    0.0000 H   0  0  0  0  0  0  0  0  0  0  0  0
   -3.3520   -3.6328    0.0000 H   0  0  0  0  0  0  0  0  0  0  0  0
   -2.2250   -3.9347    0.0000 H   0  0  0  0  0  0  0  0  0  0  0  0
   -0.4941   -1.9828    0.0000 H   0  0  0  0  0  0  0  0  0  0  0  0
   -0.4941    0.4922    0.0000 H   0  0  0  0  0  0  0  0  0  0  0  0
    1.3051    0.4045    0.0000 H   0  0  0  0  0  0  0  0  0  0  0  0
    0.5646    0.4045    0.0000 H   0  0  0  0  0  0  0  0  0  0  0  0
    2.7763   -1.0472    0.0000 H   0  0  0  0  0  0  0  0  0  0  0  0
    3.0783    0.0797    0.0000 H   0  0  0  0  0  0  0  0  0  0  0  0
    1.9513    0.3817    0.0000 H   0  0  0  0  0  0  0  0  0  0  0  0
   -2.2250    1.6192    0.0000 H   0  0  0  0  0  0  0  0  0  0  0  0
   -3.3520    1.3172    0.0000 H   0  0  0  0  0  0  0  0  0  0  0  0
   -3.0500    0.1903    0.0000 H   0  0  0  0  0  0  0  0  0  0  0  0
   -3.3520   -0.3328    0.0000 H   0  0  0  0  0  0  0  0  0  0  0  0
  1  2  1  0  0  0  0
  2  3  1  0  0  0  0
  4  3  4  0  0  0  0
  5  4  4  0  0  0  0
  5  6  1  0  0  0  0
  6  7  1  0  0  0  0
  7  8  2  0  0  0  0
  7  9  1  0  0  0  0
  9 10  1  0  0  0  0
 10 11  1  0  0  0  0
 10 12  2  0  0  0  0
 13  5  4  0  0  0  0
 13 14  1  0  0  0  0
 14 15  1  0  0  0  0
 16 13  4  0  0  0  0
 17 16  4  0  0  0  0
 17 18  1  0  0  0  0
  3 17  4  0  0  0  0
  1 19  1  0  0  0  0
  1 20  1  0  0  0  0
  1 21  1  0  0  0  0
  4 22  1  0  0  0  0
  6 23  1  0  0  0  0
  9 24  1  0  0  0  0
  9 25  1  0  0  0  0
 11 26  1  0  0  0  0
 11 27  1  0  0  0  0
 11 28  1  0  0  0  0
 15 29  1  0  0  0  0
 15 30  1  0  0  0  0
 15 31  1  0  0  0  0
 16 32  1  0  0  0  0
M  END
>  <id_input>
3454

>  <InChIKey>
MOUVJGIRLPZEES-UHFFFAOYSA-N

>  <substance_name>
N-(4-chloro-2,5-dimethoxyphenyl)-3-oxobutanamide

>  <casrn>
4433-79-8

>  <Molecular weight>
271.6968688964844

>  <guideline>
OECD Guideline 404 (Acute Dermal Irritation / Corrosion)

>  <species>
rabbit

>  <type_of_coverage>
semiocclusive

>  <max_duration(hrs)>
4.0

>  <vehicle>
other: polyethylene glycol 400

>  <edema/ erythema score>
0.0

>  <reversibility>
0.0

>  <Outcome>
0

>  <StandardizerResult>
Remove Explicit Hydrogens (ID: RemoveExplicitH)
Dearomatize (ID: Dearomatize)
Clear Stereo (ID: ClearStereo)
Wedge Clean (ID: WedgeClean)
Mesomerize (ID: Mesomerize)
Tautomerize (ID: Tautomerize)
Aromatize (ID: Aromatize)
Add Explicit Hydrogens (ID: AddExplicitH)
Neutralize (ID: Neutralize)
Clean 2D (ID: Clean2D)


$$$$

  Mrv1812 02121911042D          

 36 36  0  0  0  0            999 V2000
    0.9775    4.6731    0.0000 Cl  0  0  0  0  0  0  0  0  0  0  0  0
    0.2630    4.2606    0.0000 C   0  0  0  0  0  0  0  0  0  0  0  0
   -0.4514    4.6731    0.0000 C   0  0  0  0  0  0  0  0  0  0  0  0
   -1.1659    4.2606    0.0000 C   0  0  0  0  0  0  0  0  0  0  0  0
   -1.1659    3.4356    0.0000 C   0  0  0  0  0  0  0  0  0  0  0  0
   -0.4514    3.0231    0.0000 C   0  0  0  0  0  0  0  0  0  0  0  0
    0.2630    3.4356    0.0000 C   0  0  0  0  0  0  0  0  0  0  0  0
    0.9775    3.0231    0.0000 C   0  0  0  0  0  0  0  0  0  0  0  0
    1.6920    3.4356    0.0000 O   0  0  0  0  0  0  0  0  0  0  0  0
    0.9775    2.1981    0.0000 O   0  0  0  0  0  0  0  0  0  0  0  0
    1.6920    1.7856    0.0000 C   0  0  0  0  0  0  0  0  0  0  0  0
    2.4064    1.3731    0.0000 C   0  0  0  0  0  0  0  0  0  0  0  0
    3.1209    1.7856    0.0000 O   0  0  0  0  0  0  0  0  0  0  0  0
    2.4064    0.5481    0.0000 O   0  0  0  0  0  0  0  0  0  0  0  0
    3.1209    0.1356    0.0000 C   0  0  0  0  0  0  0  0  0  0  0  0
    3.1209   -0.6894    0.0000 C   0  0  0  0  0  0  0  0  0  0  0  0
    3.8354   -1.1019    0.0000 C   0  0  0  0  0  0  0  0  0  0  0  0
    1.2795    1.0712    0.0000 C   0  0  0  0  0  0  0  0  0  0  0  0
    2.1045    2.5001    0.0000 C   0  0  0  0  0  0  0  0  0  0  0  0
   -1.8804    3.0231    0.0000 N   0  0  0  0  0  0  0  0  0  0  0  0
   -0.4514    5.4981    0.0000 H   0  0  0  0  0  0  0  0  0  0  0  0
   -1.8804    4.6731    0.0000 H   0  0  0  0  0  0  0  0  0  0  0  0
   -0.4514    2.1981    0.0000 H   0  0  0  0  0  0  0  0  0  0  0  0
    3.9445    0.1836    0.0000 H   0  0  0  0  0  0  0  0  0  0  0  0
    3.5743    0.8249    0.0000 H   0  0  0  0  0  0  0  0  0  0  0  0
    2.4064   -1.1019    0.0000 H   0  0  0  0  0  0  0  0  0  0  0  0
    3.8354   -1.9269    0.0000 H   0  0  0  0  0  0  0  0  0  0  0  0
    4.5499   -0.6894    0.0000 H   0  0  0  0  0  0  0  0  0  0  0  0
    0.5650    1.4837    0.0000 H   0  0  0  0  0  0  0  0  0  0  0  0
    0.8670    0.3567    0.0000 H   0  0  0  0  0  0  0  0  0  0  0  0
    1.9939    0.6587    0.0000 H   0  0  0  0  0  0  0  0  0  0  0  0
    2.8189    2.0876    0.0000 H   0  0  0  0  0  0  0  0  0  0  0  0
    2.5170    3.2146    0.0000 H   0  0  0  0  0  0  0  0  0  0  0  0
    1.3900    2.9126    0.0000 H   0  0  0  0  0  0  0  0  0  0  0  0
   -2.5949    3.4356    0.0000 H   0  0  0  0  0  0  0  0  0  0  0  0
   -1.8804    2.1981    0.0000 H   0  0  0  0  0  0  0  0  0  0  0  0
  1  2  1  0  0  0  0
  3  2  4  0  0  0  0
  4  3  4  0  0  0  0
  5  4  4  0  0  0  0
  6  5  4  0  0  0  0
  7  6  4  0  0  0  0
  7  8  1  0  0  0  0
  8  9  2  0  0  0  0
  8 10  1  0  0  0  0
 10 11  1  0  0  0  0
 11 12  1  0  0  0  0
 12 13  2  0  0  0  0
 12 14  1  0  0  0  0
 14 15  1  0  0  0  0
 15 16  1  0  0  0  0
 16 17  2  0  0  0  0
 11 18  1  0  0  0  0
 11 19  1  0  0  0  0
  5 20  1  0  0  0  0
  2  7  4  0  0  0  0
  3 21  1  0  0  0  0
  4 22  1  0  0  0  0
  6 23  1  0  0  0  0
 15 24  1  0  0  0  0
 15 25  1  0  0  0  0
 16 26  1  0  0  0  0
 17 27  1  0  0  0  0
 17 28  1  0  0  0  0
 18 29  1  0  0  0  0
 18 30  1  0  0  0  0
 18 31  1  0  0  0  0
 19 32  1  0  0  0  0
 19 33  1  0  0  0  0
 19 34  1  0  0  0  0
 20 35  1  0  0  0  0
 20 36  1  0  0  0  0
M  END
>  <id_input>
814

>  <InChIKey>
RGPKEFLHWNRAPS-UHFFFAOYSA-N

>  <substance_name>
-

>  <casrn>
174489-43-1

>  <Molecular weight>
297.734130859375

>  <guideline>
OECD Guideline 404 (Acute Dermal Irritation / Corrosion)

>  <species>
rabbit

>  <type_of_coverage>
occlusive

>  <max_duration(hrs)>
4.0

>  <vehicle>
unchanged (no vehicle)

>  <edema/ erythema score>
0.0

>  <max_score>
0.0

>  <reversibility>
0.0

>  <Outcome>
0

>  <StandardizerResult>
Remove Explicit Hydrogens (ID: RemoveExplicitH)
Dearomatize (ID: Dearomatize)
Clear Stereo (ID: ClearStereo)
Wedge Clean (ID: WedgeClean)
Mesomerize (ID: Mesomerize)
Tautomerize (ID: Tautomerize)
Aromatize (ID: Aromatize)
Add Explicit Hydrogens (ID: AddExplicitH)
Neutralize (ID: Neutralize)
Clean 2D (ID: Clean2D)


$$$$

  Mrv1812 02121911042D          

 44 51  0  0  0  0            999 V2000
    2.7276   -1.8493    0.0000 O   0  0  0  0  0  0  0  0  0  0  0  0
    2.4181   -2.6140    0.0000 C   0  0  0  0  0  0  0  0  0  0  0  0
    2.9256   -3.2644    0.0000 N   0  0  0  0  0  0  0  0  0  0  0  0
    3.7486   -3.3224    0.0000 C   0  0  0  0  0  0  0  0  0  0  0  0
    4.3424   -2.7497    0.0000 C   0  0  0  0  0  0  0  0  0  0  0  0
    5.1353   -2.9775    0.0000 C   0  0  0  0  0  0  0  0  0  0  0  0
    5.3344   -3.7781    0.0000 C   0  0  0  0  0  0  0  0  0  0  0  0
    4.7406   -4.3509    0.0000 C   0  0  0  0  0  0  0  0  0  0  0  0
    3.9477   -4.1230    0.0000 C   0  0  0  0  0  0  0  0  0  0  0  0
    3.2478   -4.5598    0.0000 N   0  0  0  0  0  0  0  0  0  0  0  0
    2.6161   -4.0292    0.0000 C   0  0  0  0  0  0  0  0  0  0  0  0
    1.7991   -4.1435    0.0000 C   0  0  0  0  0  0  0  0  0  0  0  0
    1.4896   -4.9083    0.0000 C   0  0  0  0  0  0  0  0  0  0  0  0
    0.6726   -5.0226    0.0000 C   0  0  0  0  0  0  0  0  0  0  0  0
    0.1650   -4.3722    0.0000 C   0  0  0  0  0  0  0  0  0  0  0  0
   -0.6520   -4.4866    0.0000 C   0  0  0  0  0  0  0  0  0  0  0  0
   -0.9615   -5.2513    0.0000 O   0  0  0  0  0  0  0  0  0  0  0  0
   -1.1596   -3.8362    0.0000 N   0  0  0  0  0  0  0  0  0  0  0  0
   -1.9825   -3.7781    0.0000 C   0  0  0  0  0  0  0  0  0  0  0  0
   -2.5763   -4.3509    0.0000 C   0  0  0  0  0  0  0  0  0  0  0  0
   -3.3692   -4.1230    0.0000 C   0  0  0  0  0  0  0  0  0  0  0  0
   -3.5683   -3.3224    0.0000 C   0  0  0  0  0  0  0  0  0  0  0  0
   -2.9746   -2.7497    0.0000 C   0  0  0  0  0  0  0  0  0  0  0  0
   -2.1816   -2.9775    0.0000 C   0  0  0  0  0  0  0  0  0  0  0  0
   -1.4818   -2.5408    0.0000 N   0  0  0  0  0  0  0  0  0  0  0  0
   -0.8501   -3.0714    0.0000 C   0  0  0  0  0  0  0  0  0  0  0  0
   -0.0330   -2.9571    0.0000 C   0  0  0  0  0  0  0  0  0  0  0  0
    0.2764   -2.1923    0.0000 C   0  0  0  0  0  0  0  0  0  0  0  0
    1.0935   -2.0780    0.0000 C   0  0  0  0  0  0  0  0  0  0  0  0
    1.6010   -2.7284    0.0000 C   0  0  0  0  0  0  0  0  0  0  0  0
    1.2915   -3.4931    0.0000 C   0  0  0  0  0  0  0  0  0  0  0  0
    0.4745   -3.6075    0.0000 C   0  0  0  0  0  0  0  0  0  0  0  0
    4.1432   -1.9491    0.0000 H   0  0  0  0  0  0  0  0  0  0  0  0
    5.7291   -2.4048    0.0000 H   0  0  0  0  0  0  0  0  0  0  0  0
    6.1273   -4.0060    0.0000 H   0  0  0  0  0  0  0  0  0  0  0  0
    4.9397   -5.1515    0.0000 H   0  0  0  0  0  0  0  0  0  0  0  0
    1.9972   -5.5587    0.0000 H   0  0  0  0  0  0  0  0  0  0  0  0
    0.3631   -5.7874    0.0000 H   0  0  0  0  0  0  0  0  0  0  0  0
   -2.3772   -5.1515    0.0000 H   0  0  0  0  0  0  0  0  0  0  0  0
   -3.9630   -4.6958    0.0000 H   0  0  0  0  0  0  0  0  0  0  0  0
   -4.3613   -3.0946    0.0000 H   0  0  0  0  0  0  0  0  0  0  0  0
   -3.1737   -1.9491    0.0000 H   0  0  0  0  0  0  0  0  0  0  0  0
   -0.2311   -1.5419    0.0000 H   0  0  0  0  0  0  0  0  0  0  0  0
    1.4030   -1.3132    0.0000 H   0  0  0  0  0  0  0  0  0  0  0  0
  1  2  2  0  0  0  0
  3  2  1  0  0  0  0
  3  4  4  0  0  0  0
  5  4  4  0  0  0  0
  6  5  4  0  0  0  0
  7  6  4  0  0  0  0
  8  7  4  0  0  0  0
  9  8  4  0  0  0  0
  9 10  4  0  0  0  0
 10 11  4  0  0  0  0
 12 11  1  0  0  0  0
 12 13  4  0  0  0  0
 13 14  4  0  0  0  0
 14 15  4  0  0  0  0
 16 15  1  0  0  0  0
 16 17  2  0  0  0  0
 18 16  1  0  0  0  0
 18 19  4  0  0  0  0
 20 19  4  0  0  0  0
 21 20  4  0  0  0  0
 22 21  4  0  0  0  0
 23 22  4  0  0  0  0
 24 23  4  0  0  0  0
 24 25  4  0  0  0  0
 25 26  4  0  0  0  0
 27 26  1  0  0  0  0
 27 28  4  0  0  0  0
 28 29  4  0  0  0  0
 29 30  4  0  0  0  0
 30 31  4  0  0  0  0
 32 31  4  0  0  0  0
  2 30  1  0  0  0  0
 11  3  4  0  0  0  0
  4  9  4  0  0  0  0
 31 12  4  0  0  0  0
 15 32  4  0  0  0  0
 26 18  4  0  0  0  0
 19 24  4  0  0  0  0
 32 27  4  0  0  0  0
  5 33  1  0  0  0  0
  6 34  1  0  0  0  0
  7 35  1  0  0  0  0
  8 36  1  0  0  0  0
 13 37  1  0  0  0  0
 14 38  1  0  0  0  0
 20 39  1  0  0  0  0
 21 40  1  0  0  0  0
 22 41  1  0  0  0  0
 23 42  1  0  0  0  0
 28 43  1  0  0  0  0
 29 44  1  0  0  0  0
M  END
>  <id_input>
2632

>  <InChIKey>
DGBWPZSGHAXYGK-UHFFFAOYSA-N

>  <substance_name>
3,10,17,24-tetraazaoctacyclo[13.13.2.0????,??????????.0??????,??????.0????????,??????????.0??????????,??????????.0??????????,????????.0??????????,??????????]triaconta-1(28),2,4(9),5,7,12,14,16,18(23),19,21,26,29-tridecaene-11,25-dione

>  <casrn>
4424-06-0

>  <Molecular weight>
412.3990783691406

>  <guideline>
OECD Guideline 404 (Acute Dermal Irritation / Corrosion)

>  <species>
rabbit

>  <type_of_coverage>
semiocclusive

>  <max_duration(hrs)>
4.0

>  <vehicle>
water

>  <edema/ erythema score>
0.0

>  <max_score>
4.0

>  <reversibility>
0.0

>  <Outcome>
0

>  <StandardizerResult>
Remove Explicit Hydrogens (ID: RemoveExplicitH)
Dearomatize (ID: Dearomatize)
Clear Stereo (ID: ClearStereo)
Wedge Clean (ID: WedgeClean)
Mesomerize (ID: Mesomerize)
Tautomerize (ID: Tautomerize)
Aromatize (ID: Aromatize)
Add Explicit Hydrogens (ID: AddExplicitH)
Neutralize (ID: Neutralize)
Clean 2D (ID: Clean2D)


$$$$

  Mrv1812 02121911042D          

 29 29  0  0  0  0            999 V2000
    2.8506    0.8595    0.0000 C   0  0  0  0  0  0  0  0  0  0  0  0
    2.1362    1.2720    0.0000 N   0  0  0  0  0  0  0  0  0  0  0  0
    1.4217    0.8595    0.0000 S   0  0  0  0  0  0  0  0  0  0  0  0
    1.0092    1.5739    0.0000 O   0  0  0  0  0  0  0  0  0  0  0  0
    1.8342    0.1450    0.0000 O   0  0  0  0  0  0  0  0  0  0  0  0
    0.7072    0.4470    0.0000 C   0  0  0  0  0  0  0  0  0  0  0  0
   -0.0072    0.8595    0.0000 C   0  0  0  0  0  0  0  0  0  0  0  0
   -0.7217    0.4470    0.0000 C   0  0  0  0  0  0  0  0  0  0  0  0
   -1.4362    0.8595    0.0000 O   0  0  0  0  0  0  0  0  0  0  0  0
   -2.1507    0.4470    0.0000 C   0  0  0  0  0  0  0  0  0  0  0  0
   -0.7217   -0.3780    0.0000 C   0  0  0  0  0  0  0  0  0  0  0  0
   -1.4362   -0.7905    0.0000 N   0  0  0  0  0  0  0  0  0  0  0  0
   -0.0072   -0.7905    0.0000 C   0  0  0  0  0  0  0  0  0  0  0  0
    0.7072   -0.3780    0.0000 C   0  0  0  0  0  0  0  0  0  0  0  0
    1.4217   -0.7905    0.0000 C   0  0  0  0  0  0  0  0  0  0  0  0
    2.4381    0.1450    0.0000 H   0  0  0  0  0  0  0  0  0  0  0  0
    3.5651    0.4470    0.0000 H   0  0  0  0  0  0  0  0  0  0  0  0
    3.2631    1.5739    0.0000 H   0  0  0  0  0  0  0  0  0  0  0  0
    2.1362    2.0970    0.0000 H   0  0  0  0  0  0  0  0  0  0  0  0
   -0.0072    1.6845    0.0000 H   0  0  0  0  0  0  0  0  0  0  0  0
   -2.5632    1.1614    0.0000 H   0  0  0  0  0  0  0  0  0  0  0  0
   -2.8651    0.0345    0.0000 H   0  0  0  0  0  0  0  0  0  0  0  0
   -1.7382   -0.2675    0.0000 H   0  0  0  0  0  0  0  0  0  0  0  0
   -2.0195   -1.3739    0.0000 H   0  0  0  0  0  0  0  0  0  0  0  0
   -1.2227   -1.5874    0.0000 H   0  0  0  0  0  0  0  0  0  0  0  0
   -0.0072   -1.6155    0.0000 H   0  0  0  0  0  0  0  0  0  0  0  0
    1.0092   -1.5050    0.0000 H   0  0  0  0  0  0  0  0  0  0  0  0
    2.1362   -1.2030    0.0000 H   0  0  0  0  0  0  0  0  0  0  0  0
    1.8342   -0.0761    0.0000 H   0  0  0  0  0  0  0  0  0  0  0  0
  1  2  1  0  0  0  0
  2  3  1  0  0  0  0
  3  4  2  0  0  0  0
  3  5  2  0  0  0  0
  3  6  1  0  0  0  0
  7  6  4  0  0  0  0
  8  7  4  0  0  0  0
  8  9  1  0  0  0  0
  9 10  1  0  0  0  0
 11  8  4  0  0  0  0
 11 12  1  0  0  0  0
 13 11  4  0  0  0  0
 14 13  4  0  0  0  0
 14 15  1  0  0  0  0
  6 14  4  0  0  0  0
  1 16  1  0  0  0  0
  1 17  1  0  0  0  0
  1 18  1  0  0  0  0
  2 19  1  0  0  0  0
  7 20  1  0  0  0  0
 10 21  1  0  0  0  0
 10 22  1  0  0  0  0
 10 23  1  0  0  0  0
 12 24  1  0  0  0  0
 12 25  1  0  0  0  0
 13 26  1  0  0  0  0
 15 27  1  0  0  0  0
 15 28  1  0  0  0  0
 15 29  1  0  0  0  0
M  END
>  <id_input>
2877

>  <InChIKey>
GWSQAGVGSHXRJK-UHFFFAOYSA-N

>  <substance_name>
4-amino-5-methoxy-N,2-dimethylbenzenesulfonamide

>  <casrn>
49564-57-0

>  <Molecular weight>
230.2840576171875

>  <guideline>
OECD Guideline 404 (Acute Dermal Irritation / Corrosion)

>  <species>
rabbit

>  <type_of_coverage>
semiocclusive

>  <max_duration(hrs)>
4.0

>  <vehicle>
physiological saline

>  <edema/ erythema score>
0.15

>  <max_score>
4.0

>  <reversibility>
0.0

>  <Outcome>
0

>  <StandardizerResult>
Remove Explicit Hydrogens (ID: RemoveExplicitH)
Dearomatize (ID: Dearomatize)
Clear Stereo (ID: ClearStereo)
Wedge Clean (ID: WedgeClean)
Mesomerize (ID: Mesomerize)
Tautomerize (ID: Tautomerize)
Aromatize (ID: Aromatize)
Add Explicit Hydrogens (ID: AddExplicitH)
Neutralize (ID: Neutralize)
Clean 2D (ID: Clean2D)


$$$$

  Mrv1812 02121911042D          

 50 53  0  0  0  0            999 V2000
    1.9547   -1.0210    0.0000 F   0  0  0  0  0  0  0  0  0  0  0  0
    1.4697   -0.3536    0.0000 C   0  0  0  0  0  0  0  0  0  0  0  0
    2.1372    0.1313    0.0000 F   0  0  0  0  0  0  0  0  0  0  0  0
    0.8023   -0.8385    0.0000 F   0  0  0  0  0  0  0  0  0  0  0  0
    0.9848    0.3138    0.0000 C   0  0  0  0  0  0  0  0  0  0  0  0
    1.3204    1.0675    0.0000 C   0  0  0  0  0  0  0  0  0  0  0  0
    0.8355    1.7350    0.0000 C   0  0  0  0  0  0  0  0  0  0  0  0
    1.1710    2.4886    0.0000 Cl  0  0  0  0  0  0  0  0  0  0  0  0
    0.0150    1.6487    0.0000 C   0  0  0  0  0  0  0  0  0  0  0  0
   -0.3206    0.8950    0.0000 C   0  0  0  0  0  0  0  0  0  0  0  0
   -1.1411    0.8088    0.0000 Cl  0  0  0  0  0  0  0  0  0  0  0  0
    0.1643    0.2276    0.0000 C   0  0  0  0  0  0  0  0  0  0  0  0
   -0.4700    2.3162    0.0000 N   0  0  0  0  0  0  0  0  0  0  0  0
   -0.2150    3.1008    0.0000 N   0  0  0  0  0  0  0  0  0  0  0  0
   -0.8825    3.5857    0.0000 C   0  0  0  0  0  0  0  0  0  0  0  0
   -0.8825    4.4107    0.0000 C   0  0  0  0  0  0  0  0  0  0  0  0
   -0.8825    5.2357    0.0000 N   0  0  0  0  0  0  0  0  0  0  0  0
   -1.5499    3.1008    0.0000 C   0  0  0  0  0  0  0  0  0  0  0  0
   -2.3345    3.3557    0.0000 S   0  0  0  0  0  0  0  0  0  0  0  0
   -2.9476    2.8037    0.0000 S   0  0  0  0  0  0  0  0  0  0  0  0
   -3.7322    3.0586    0.0000 C   0  0  0  0  0  0  0  0  0  0  0  0
   -3.9872    3.8432    0.0000 C   0  0  0  0  0  0  0  0  0  0  0  0
   -3.5022    4.5107    0.0000 C   0  0  0  0  0  0  0  0  0  0  0  0
   -3.0173    5.1781    0.0000 N   0  0  0  0  0  0  0  0  0  0  0  0
   -4.8122    3.8432    0.0000 N   0  0  0  0  0  0  0  0  0  0  0  0
   -5.0671    3.0586    0.0000 N   0  0  0  0  0  0  0  0  0  0  0  0
   -5.8517    2.8037    0.0000 C   0  0  0  0  0  0  0  0  0  0  0  0
   -6.4648    3.3557    0.0000 C   0  0  0  0  0  0  0  0  0  0  0  0
   -6.2933    4.1627    0.0000 Cl  0  0  0  0  0  0  0  0  0  0  0  0
   -7.2494    3.1008    0.0000 C   0  0  0  0  0  0  0  0  0  0  0  0
   -7.4210    2.2938    0.0000 C   0  0  0  0  0  0  0  0  0  0  0  0
   -6.8079    1.7418    0.0000 C   0  0  0  0  0  0  0  0  0  0  0  0
   -6.0233    1.9967    0.0000 C   0  0  0  0  0  0  0  0  0  0  0  0
   -5.4102    1.4447    0.0000 Cl  0  0  0  0  0  0  0  0  0  0  0  0
   -8.2056    2.0389    0.0000 C   0  0  0  0  0  0  0  0  0  0  0  0
   -8.9902    1.7839    0.0000 F   0  0  0  0  0  0  0  0  0  0  0  0
   -8.4605    2.8235    0.0000 F   0  0  0  0  0  0  0  0  0  0  0  0
   -7.9507    1.2542    0.0000 F   0  0  0  0  0  0  0  0  0  0  0  0
   -4.3997    2.5737    0.0000 C   0  0  0  0  0  0  0  0  0  0  0  0
   -4.3997    1.7487    0.0000 N   0  0  0  0  0  0  0  0  0  0  0  0
   -1.2950    2.3162    0.0000 C   0  0  0  0  0  0  0  0  0  0  0  0
   -1.7799    1.6487    0.0000 N   0  0  0  0  0  0  0  0  0  0  0  0
    2.1409    1.1537    0.0000 H   0  0  0  0  0  0  0  0  0  0  0  0
   -0.1712   -0.5261    0.0000 H   0  0  0  0  0  0  0  0  0  0  0  0
   -7.8625    3.6528    0.0000 H   0  0  0  0  0  0  0  0  0  0  0  0
   -6.9794    0.9348    0.0000 H   0  0  0  0  0  0  0  0  0  0  0  0
   -5.1141    1.3362    0.0000 H   0  0  0  0  0  0  0  0  0  0  0  0
   -3.6852    1.3362    0.0000 H   0  0  0  0  0  0  0  0  0  0  0  0
   -2.6004    1.7350    0.0000 H   0  0  0  0  0  0  0  0  0  0  0  0
   -1.4443    0.8950    0.0000 H   0  0  0  0  0  0  0  0  0  0  0  0
  1  2  1  0  0  0  0
  2  3  1  0  0  0  0
  2  4  1  0  0  0  0
  2  5  1  0  0  0  0
  6  5  4  0  0  0  0
  7  6  4  0  0  0  0
  7  8  1  0  0  0  0
  9  7  4  0  0  0  0
 10  9  4  0  0  0  0
 10 11  1  0  0  0  0
 12 10  4  0  0  0  0
  9 13  1  0  0  0  0
 14 13  4  0  0  0  0
 15 14  4  0  0  0  0
 15 16  1  0  0  0  0
 16 17  3  0  0  0  0
 18 15  4  0  0  0  0
 18 19  1  0  0  0  0
 19 20  1  0  0  0  0
 20 21  1  0  0  0  0
 22 21  4  0  0  0  0
 22 23  1  0  0  0  0
 23 24  3  0  0  0  0
 25 22  4  0  0  0  0
 26 25  4  0  0  0  0
 26 27  1  0  0  0  0
 28 27  4  0  0  0  0
 28 29  1  0  0  0  0
 30 28  4  0  0  0  0
 31 30  4  0  0  0  0
 32 31  4  0  0  0  0
 33 32  4  0  0  0  0
 33 34  1  0  0  0  0
 31 35  1  0  0  0  0
 35 36  1  0  0  0  0
 35 37  1  0  0  0  0
 35 38  1  0  0  0  0
 39 26  4  0  0  0  0
 39 40  1  0  0  0  0
 41 18  4  0  0  0  0
 41 42  1  0  0  0  0
  5 12  4  0  0  0  0
 27 33  4  0  0  0  0
 21 39  4  0  0  0  0
 13 41  4  0  0  0  0
  6 43  1  0  0  0  0
 12 44  1  0  0  0  0
 30 45  1  0  0  0  0
 32 46  1  0  0  0  0
 40 47  1  0  0  0  0
 40 48  1  0  0  0  0
 42 49  1  0  0  0  0
 42 50  1  0  0  0  0
M  END
>  <id_input>
5292

>  <InChIKey>
KYWRZLCFDFEWBI-UHFFFAOYSA-N

>  <substance_name>
unnamed [130755-46-3]

>  <casrn>
130755-46-3

>  <Molecular weight>
704.284912109375

>  <guideline>
OECD Guideline 404 (Acute Dermal Irritation / Corrosion)

>  <species>
rabbit

>  <type_of_coverage>
semiocclusive

>  <max_duration(hrs)>
4.0

>  <vehicle>
unchanged (no vehicle)

>  <edema/ erythema score>
0.0

>  <max_score>
4.0

>  <reversibility>
0.0

>  <Outcome>
0

>  <StandardizerResult>
Remove Explicit Hydrogens (ID: RemoveExplicitH)
Dearomatize (ID: Dearomatize)
Clear Stereo (ID: ClearStereo)
Wedge Clean (ID: WedgeClean)
Mesomerize (ID: Mesomerize)
Tautomerize (ID: Tautomerize)
Aromatize (ID: Aromatize)
Add Explicit Hydrogens (ID: AddExplicitH)
Neutralize (ID: Neutralize)
Clean 2D (ID: Clean2D)


$$$$

  Mrv1812 02121911042D          

 49 49  0  0  0  0            999 V2000
   -2.5213   -2.6183    0.0000 C   0  0  0  0  0  0  0  0  0  0  0  0
   -1.8068   -3.0308    0.0000 C   0  0  0  0  0  0  0  0  0  0  0  0
   -1.0923   -2.6183    0.0000 C   0  0  0  0  0  0  0  0  0  0  0  0
   -0.3778   -3.0308    0.0000 C   0  0  0  0  0  0  0  0  0  0  0  0
    0.3366   -2.6183    0.0000 C   0  0  0  0  0  0  0  0  0  0  0  0
    0.3366   -1.7933    0.0000 C   0  0  0  0  0  0  0  0  0  0  0  0
    1.0511   -1.3808    0.0000 C   0  0  0  0  0  0  0  0  0  0  0  0
    1.0511   -3.0308    0.0000 C   0  0  0  0  0  0  0  0  0  0  0  0
    1.7656   -2.6183    0.0000 O   0  0  0  0  0  0  0  0  0  0  0  0
    2.4800   -3.0308    0.0000 C   0  0  0  0  0  0  0  0  0  0  0  0
    2.4800   -3.8558    0.0000 O   0  0  0  0  0  0  0  0  0  0  0  0
    3.1945   -2.6183    0.0000 C   0  0  0  0  0  0  0  0  0  0  0  0
    3.1945   -1.7933    0.0000 C   0  0  0  0  0  0  0  0  0  0  0  0
    3.9090   -3.0308    0.0000 O   0  0  0  0  0  0  0  0  0  0  0  0
    4.6234   -2.6183    0.0000 C   0  0  0  0  0  0  0  0  0  0  0  0
    5.3379   -3.0308    0.0000 C   0  0  0  0  0  0  0  0  0  0  0  0
    6.0524   -2.6183    0.0000 C   0  0  0  0  0  0  0  0  0  0  0  0
    6.0524   -1.7933    0.0000 C   0  0  0  0  0  0  0  0  0  0  0  0
    5.3379   -1.3808    0.0000 C   0  0  0  0  0  0  0  0  0  0  0  0
    4.6234   -1.7933    0.0000 C   0  0  0  0  0  0  0  0  0  0  0  0
    3.9090   -1.3808    0.0000 C   0  0  0  0  0  0  0  0  0  0  0  0
    6.7669   -1.3808    0.0000 Cl  0  0  0  0  0  0  0  0  0  0  0  0
   -2.1088   -1.9039    0.0000 H   0  0  0  0  0  0  0  0  0  0  0  0
   -3.2357   -2.2058    0.0000 H   0  0  0  0  0  0  0  0  0  0  0  0
   -2.9338   -3.3328    0.0000 H   0  0  0  0  0  0  0  0  0  0  0  0
   -2.1771   -3.7681    0.0000 H   0  0  0  0  0  0  0  0  0  0  0  0
   -1.4365   -3.7681    0.0000 H   0  0  0  0  0  0  0  0  0  0  0  0
   -0.7221   -1.8811    0.0000 H   0  0  0  0  0  0  0  0  0  0  0  0
   -1.4626   -1.8811    0.0000 H   0  0  0  0  0  0  0  0  0  0  0  0
   -0.7481   -3.7681    0.0000 H   0  0  0  0  0  0  0  0  0  0  0  0
   -0.0076   -3.7681    0.0000 H   0  0  0  0  0  0  0  0  0  0  0  0
   -0.3778   -2.2058    0.0000 H   0  0  0  0  0  0  0  0  0  0  0  0
    0.1934   -0.9809    0.0000 H   0  0  0  0  0  0  0  0  0  0  0  0
   -0.2954   -1.2630    0.0000 H   0  0  0  0  0  0  0  0  0  0  0  0
    1.2820   -2.1729    0.0000 H   0  0  0  0  0  0  0  0  0  0  0  0
    1.8753   -1.3448    0.0000 H   0  0  0  0  0  0  0  0  0  0  0  0
    1.2120   -0.5717    0.0000 H   0  0  0  0  0  0  0  0  0  0  0  0
    0.6808   -3.7681    0.0000 H   0  0  0  0  0  0  0  0  0  0  0  0
    1.4214   -3.7681    0.0000 H   0  0  0  0  0  0  0  0  0  0  0  0
    2.4800   -2.2058    0.0000 H   0  0  0  0  0  0  0  0  0  0  0  0
    3.0512   -0.9809    0.0000 H   0  0  0  0  0  0  0  0  0  0  0  0
    2.5625   -1.2630    0.0000 H   0  0  0  0  0  0  0  0  0  0  0  0
    3.9090   -2.2058    0.0000 H   0  0  0  0  0  0  0  0  0  0  0  0
    5.3379   -3.8558    0.0000 H   0  0  0  0  0  0  0  0  0  0  0  0
    6.7669   -3.0308    0.0000 H   0  0  0  0  0  0  0  0  0  0  0  0
    5.3379   -0.5558    0.0000 H   0  0  0  0  0  0  0  0  0  0  0  0
    4.7010   -1.1500    0.0000 H   0  0  0  0  0  0  0  0  0  0  0  0
    4.2899   -0.6490    0.0000 H   0  0  0  0  0  0  0  0  0  0  0  0
    3.6438   -0.5996    0.0000 H   0  0  0  0  0  0  0  0  0  0  0  0
  1  2  1  0  0  0  0
  2  3  1  0  0  0  0
  3  4  1  0  0  0  0
  4  5  1  0  0  0  0
  5  6  1  0  0  0  0
  6  7  1  0  0  0  0
  5  8  1  0  0  0  0
  8  9  1  0  0  0  0
  9 10  1  0  0  0  0
 10 11  2  0  0  0  0
 10 12  1  0  0  0  0
 12 13  1  0  0  0  0
 12 14  1  0  0  0  0
 14 15  1  0  0  0  0
 16 15  4  0  0  0  0
 17 16  4  0  0  0  0
 18 17  4  0  0  0  0
 19 18  4  0  0  0  0
 20 19  4  0  0  0  0
 20 21  1  0  0  0  0
 18 22  1  0  0  0  0
 15 20  4  0  0  0  0
  1 23  1  0  0  0  0
  1 24  1  0  0  0  0
  1 25  1  0  0  0  0
  2 26  1  0  0  0  0
  2 27  1  0  0  0  0
  3 28  1  0  0  0  0
  3 29  1  0  0  0  0
  4 30  1  0  0  0  0
  4 31  1  0  0  0  0
  5 32  1  0  0  0  0
  6 33  1  0  0  0  0
  6 34  1  0  0  0  0
  7 35  1  0  0  0  0
  7 36  1  0  0  0  0
  7 37  1  0  0  0  0
  8 38  1  0  0  0  0
  8 39  1  0  0  0  0
 12 40  1  0  0  0  0
 13 41  1  0  0  0  0
 13 42  1  0  0  0  0
 13 43  1  0  0  0  0
 16 44  1  0  0  0  0
 17 45  1  0  0  0  0
 19 46  1  0  0  0  0
 21 47  1  0  0  0  0
 21 48  1  0  0  0  0
 21 49  1  0  0  0  0
M  END
>  <id_input>
2460

>  <InChIKey>
NWTKQOOQEPXMMW-UHFFFAOYSA-N

>  <substance_name>
2-ethylhexyl 2-(4-chloro-2-methylphenoxy)propanoate

>  <casrn>
861229-15-4

>  <Molecular weight>
326.8581848144531

>  <guideline>
EPA OPP 81-5 (Acute Dermal Irritation)

>  <species>
rabbit

>  <type_of_coverage>
semiocclusive

>  <vehicle>
unchanged (no vehicle)

>  <edema/ erythema score>
0.916666666666666

>  <max_score>
4.0

>  <reversibility>
0.0

>  <Outcome>
0

>  <StandardizerResult>
Remove Explicit Hydrogens (ID: RemoveExplicitH)
Dearomatize (ID: Dearomatize)
Clear Stereo (ID: ClearStereo)
Wedge Clean (ID: WedgeClean)
Mesomerize (ID: Mesomerize)
Tautomerize (ID: Tautomerize)
Aromatize (ID: Aromatize)
Add Explicit Hydrogens (ID: AddExplicitH)
Neutralize (ID: Neutralize)
Clean 2D (ID: Clean2D)


$$$$

  Mrv1812 02121911042D          

 46 49  0  0  0  0            999 V2000
   -0.9668   -0.1353    0.0000 O   0  0  0  0  0  0  0  0  0  0  0  0
   -0.9668    0.6897    0.0000 S   0  0  0  0  0  0  0  0  0  0  0  0
   -0.1418    0.6897    0.0000 O   0  0  0  0  0  0  0  0  0  0  0  0
   -1.7918    0.6897    0.0000 O   0  0  0  0  0  0  0  0  0  0  0  0
   -0.9668    1.5147    0.0000 C   0  0  0  0  0  0  0  0  0  0  0  0
   -1.6813    1.9272    0.0000 C   0  0  0  0  0  0  0  0  0  0  0  0
   -1.6813    2.7522    0.0000 C   0  0  0  0  0  0  0  0  0  0  0  0
   -0.9668    3.1647    0.0000 C   0  0  0  0  0  0  0  0  0  0  0  0
   -0.2524    2.7522    0.0000 C   0  0  0  0  0  0  0  0  0  0  0  0
    0.4621    3.1647    0.0000 C   0  0  0  0  0  0  0  0  0  0  0  0
    1.1766    2.7522    0.0000 C   0  0  0  0  0  0  0  0  0  0  0  0
    1.8911    3.1647    0.0000 N   0  0  0  0  0  0  0  0  0  0  0  0
    1.8911    3.9897    0.0000 C   0  0  0  0  0  0  0  0  0  0  0  0
    2.6055    4.4022    0.0000 C   0  0  0  0  0  0  0  0  0  0  0  0
    2.6055    5.2272    0.0000 C   0  0  0  0  0  0  0  0  0  0  0  0
    1.8911    5.6397    0.0000 C   0  0  0  0  0  0  0  0  0  0  0  0
    1.1766    5.2272    0.0000 C   0  0  0  0  0  0  0  0  0  0  0  0
    1.1766    4.4022    0.0000 C   0  0  0  0  0  0  0  0  0  0  0  0
    1.1766    1.9272    0.0000 C   0  0  0  0  0  0  0  0  0  0  0  0
    0.4621    1.5147    0.0000 C   0  0  0  0  0  0  0  0  0  0  0  0
    0.4621    0.6897    0.0000 N   0  0  0  0  0  0  0  0  0  0  0  0
    1.1766    0.2772    0.0000 C   0  0  0  0  0  0  0  0  0  0  0  0
    1.1766   -0.5478    0.0000 C   0  0  0  0  0  0  0  0  0  0  0  0
    1.8911   -0.9603    0.0000 C   0  0  0  0  0  0  0  0  0  0  0  0
    2.6055   -0.5478    0.0000 C   0  0  0  0  0  0  0  0  0  0  0  0
    2.6055    0.2772    0.0000 C   0  0  0  0  0  0  0  0  0  0  0  0
    1.8911    0.6897    0.0000 C   0  0  0  0  0  0  0  0  0  0  0  0
   -0.2524    1.9272    0.0000 C   0  0  0  0  0  0  0  0  0  0  0  0
   -1.6813   -0.5478    0.0000 H   0  0  0  0  0  0  0  0  0  0  0  0
   -2.3958    1.5147    0.0000 H   0  0  0  0  0  0  0  0  0  0  0  0
   -2.3958    3.1647    0.0000 H   0  0  0  0  0  0  0  0  0  0  0  0
   -0.9668    3.9897    0.0000 H   0  0  0  0  0  0  0  0  0  0  0  0
    0.4621    3.9897    0.0000 H   0  0  0  0  0  0  0  0  0  0  0  0
    2.6055    2.7522    0.0000 H   0  0  0  0  0  0  0  0  0  0  0  0
    3.3200    3.9897    0.0000 H   0  0  0  0  0  0  0  0  0  0  0  0
    3.3200    5.6397    0.0000 H   0  0  0  0  0  0  0  0  0  0  0  0
    1.8911    6.4647    0.0000 H   0  0  0  0  0  0  0  0  0  0  0  0
    0.4621    5.6397    0.0000 H   0  0  0  0  0  0  0  0  0  0  0  0
    0.4621    4.8147    0.0000 H   0  0  0  0  0  0  0  0  0  0  0  0
    1.8911    1.5147    0.0000 H   0  0  0  0  0  0  0  0  0  0  0  0
    0.2486   -0.1072    0.0000 H   0  0  0  0  0  0  0  0  0  0  0  0
    0.4621   -0.9603    0.0000 H   0  0  0  0  0  0  0  0  0  0  0  0
    1.8911   -1.7853    0.0000 H   0  0  0  0  0  0  0  0  0  0  0  0
    3.3200   -0.9603    0.0000 H   0  0  0  0  0  0  0  0  0  0  0  0
    3.3200    0.6897    0.0000 H   0  0  0  0  0  0  0  0  0  0  0  0
    2.6055    1.1022    0.0000 H   0  0  0  0  0  0  0  0  0  0  0  0
  1  2  1  0  0  0  0
  2  3  2  0  0  0  0
  2  4  2  0  0  0  0
  2  5  1  0  0  0  0
  6  5  4  0  0  0  0
  7  6  4  0  0  0  0
  8  7  4  0  0  0  0
  9  8  4  0  0  0  0
  9 10  4  0  0  0  0
 10 11  4  0  0  0  0
 11 12  1  0  0  0  0
 12 13  1  0  0  0  0
 14 13  4  0  0  0  0
 15 14  4  0  0  0  0
 16 15  4  0  0  0  0
 17 16  4  0  0  0  0
 18 17  4  0  0  0  0
 11 19  4  0  0  0  0
 19 20  4  0  0  0  0
 20 21  1  0  0  0  0
 21 22  1  0  0  0  0
 23 22  4  0  0  0  0
 24 23  4  0  0  0  0
 25 24  4  0  0  0  0
 26 25  4  0  0  0  0
 27 26  4  0  0  0  0
 20 28  4  0  0  0  0
  5 28  4  0  0  0  0
 28  9  4  0  0  0  0
 13 18  4  0  0  0  0
 22 27  4  0  0  0  0
  1 29  1  0  0  0  0
  6 30  1  0  0  0  0
  7 31  1  0  0  0  0
  8 32  1  0  0  0  0
 10 33  1  0  0  0  0
 12 34  1  0  0  0  0
 14 35  1  0  0  0  0
 15 36  1  0  0  0  0
 16 37  1  0  0  0  0
 17 38  1  0  0  0  0
 18 39  1  0  0  0  0
 19 40  1  0  0  0  0
 21 41  1  0  0  0  0
 23 42  1  0  0  0  0
 24 43  1  0  0  0  0
 25 44  1  0  0  0  0
 26 45  1  0  0  0  0
 27 46  1  0  0  0  0
M  END
>  <id_input>
2994

>  <InChIKey>
USFSONWQSVCJBO-UHFFFAOYSA-N

>  <substance_name>
6,8-bis(phenylamino)naphthalene-1-sulfonic acid

>  <casrn>
129-93-1

>  <Molecular weight>
390.4549255371094

>  <guideline>
OECD Guideline 404 (Acute Dermal Irritation / Corrosion)

>  <species>
rabbit

>  <type_of_coverage>
not specified

>  <max_duration(hrs)>
4.0

>  <vehicle>
water

>  <edema/ erythema score>
0.766666666666666

>  <max_score>
4.0

>  <reversibility>
0.0

>  <Outcome>
0

>  <StandardizerResult>
Remove Explicit Hydrogens (ID: RemoveExplicitH)
Dearomatize (ID: Dearomatize)
Clear Stereo (ID: ClearStereo)
Wedge Clean (ID: WedgeClean)
Mesomerize (ID: Mesomerize)
Tautomerize (ID: Tautomerize)
Aromatize (ID: Aromatize)
Add Explicit Hydrogens (ID: AddExplicitH)
Neutralize (ID: Neutralize)
Clean 2D (ID: Clean2D)


$$$$

  Mrv1812 02121911042D          

 44 51  0  0  0  0            999 V2000
    2.7344   -1.9313    0.0000 O   0  0  0  0  0  0  0  0  0  0  0  0
    2.3219   -2.6458    0.0000 C   0  0  0  0  0  0  0  0  0  0  0  0
    2.7344   -3.3602    0.0000 N   0  0  0  0  0  0  0  0  0  0  0  0
    3.5414   -3.5318    0.0000 C   0  0  0  0  0  0  0  0  0  0  0  0
    4.2088   -3.0468    0.0000 C   0  0  0  0  0  0  0  0  0  0  0  0
    4.9625   -3.3824    0.0000 C   0  0  0  0  0  0  0  0  0  0  0  0
    5.0487   -4.2029    0.0000 C   0  0  0  0  0  0  0  0  0  0  0  0
    4.3813   -4.6878    0.0000 C   0  0  0  0  0  0  0  0  0  0  0  0
    3.6276   -4.3522    0.0000 C   0  0  0  0  0  0  0  0  0  0  0  0
    2.8739   -4.6878    0.0000 N   0  0  0  0  0  0  0  0  0  0  0  0
    2.3219   -4.0747    0.0000 C   0  0  0  0  0  0  0  0  0  0  0  0
    1.4969   -4.0747    0.0000 C   0  0  0  0  0  0  0  0  0  0  0  0
    1.0844   -4.7892    0.0000 C   0  0  0  0  0  0  0  0  0  0  0  0
    0.2594   -4.7892    0.0000 C   0  0  0  0  0  0  0  0  0  0  0  0
   -0.1531   -4.0747    0.0000 C   0  0  0  0  0  0  0  0  0  0  0  0
   -0.9781   -4.0747    0.0000 C   0  0  0  0  0  0  0  0  0  0  0  0
   -1.5301   -4.6878    0.0000 N   0  0  0  0  0  0  0  0  0  0  0  0
   -2.2838   -4.3522    0.0000 C   0  0  0  0  0  0  0  0  0  0  0  0
   -3.0375   -4.6878    0.0000 C   0  0  0  0  0  0  0  0  0  0  0  0
   -3.7049   -4.2029    0.0000 C   0  0  0  0  0  0  0  0  0  0  0  0
   -3.6187   -3.3824    0.0000 C   0  0  0  0  0  0  0  0  0  0  0  0
   -2.8650   -3.0468    0.0000 C   0  0  0  0  0  0  0  0  0  0  0  0
   -2.1976   -3.5318    0.0000 C   0  0  0  0  0  0  0  0  0  0  0  0
   -1.3906   -3.3602    0.0000 N   0  0  0  0  0  0  0  0  0  0  0  0
   -0.9781   -2.6458    0.0000 C   0  0  0  0  0  0  0  0  0  0  0  0
   -1.3906   -1.9313    0.0000 O   0  0  0  0  0  0  0  0  0  0  0  0
   -0.1531   -2.6458    0.0000 C   0  0  0  0  0  0  0  0  0  0  0  0
    0.2594   -1.9313    0.0000 C   0  0  0  0  0  0  0  0  0  0  0  0
    1.0844   -1.9313    0.0000 C   0  0  0  0  0  0  0  0  0  0  0  0
    1.4969   -2.6458    0.0000 C   0  0  0  0  0  0  0  0  0  0  0  0
    1.0844   -3.3602    0.0000 C   0  0  0  0  0  0  0  0  0  0  0  0
    0.2594   -3.3602    0.0000 C   0  0  0  0  0  0  0  0  0  0  0  0
    4.1226   -2.2264    0.0000 H   0  0  0  0  0  0  0  0  0  0  0  0
    5.6299   -2.8975    0.0000 H   0  0  0  0  0  0  0  0  0  0  0  0
    5.8024   -4.5384    0.0000 H   0  0  0  0  0  0  0  0  0  0  0  0
    4.4675   -5.5083    0.0000 H   0  0  0  0  0  0  0  0  0  0  0  0
    1.4969   -5.5037    0.0000 H   0  0  0  0  0  0  0  0  0  0  0  0
   -0.1531   -5.5037    0.0000 H   0  0  0  0  0  0  0  0  0  0  0  0
   -3.1237   -5.5083    0.0000 H   0  0  0  0  0  0  0  0  0  0  0  0
   -4.4586   -4.5384    0.0000 H   0  0  0  0  0  0  0  0  0  0  0  0
   -4.2861   -2.8975    0.0000 H   0  0  0  0  0  0  0  0  0  0  0  0
   -2.7788   -2.2264    0.0000 H   0  0  0  0  0  0  0  0  0  0  0  0
   -0.1531   -1.2168    0.0000 H   0  0  0  0  0  0  0  0  0  0  0  0
    1.4969   -1.2168    0.0000 H   0  0  0  0  0  0  0  0  0  0  0  0
  1  2  2  0  0  0  0
  3  2  1  0  0  0  0
  3  4  4  0  0  0  0
  5  4  4  0  0  0  0
  6  5  4  0  0  0  0
  7  6  4  0  0  0  0
  8  7  4  0  0  0  0
  9  8  4  0  0  0  0
  9 10  4  0  0  0  0
 10 11  4  0  0  0  0
 12 11  1  0  0  0  0
 12 13  4  0  0  0  0
 13 14  4  0  0  0  0
 14 15  4  0  0  0  0
 16 15  1  0  0  0  0
 16 17  4  0  0  0  0
 17 18  4  0  0  0  0
 19 18  4  0  0  0  0
 20 19  4  0  0  0  0
 21 20  4  0  0  0  0
 22 21  4  0  0  0  0
 23 22  4  0  0  0  0
 23 24  4  0  0  0  0
 25 24  1  0  0  0  0
 25 26  2  0  0  0  0
 27 25  1  0  0  0  0
 27 28  4  0  0  0  0
 28 29  4  0  0  0  0
 29 30  4  0  0  0  0
 30 31  4  0  0  0  0
 32 31  4  0  0  0  0
  2 30  1  0  0  0  0
 11  3  4  0  0  0  0
  4  9  4  0  0  0  0
 31 12  4  0  0  0  0
 15 32  4  0  0  0  0
 24 16  4  0  0  0  0
 18 23  4  0  0  0  0
 32 27  4  0  0  0  0
  5 33  1  0  0  0  0
  6 34  1  0  0  0  0
  7 35  1  0  0  0  0
  8 36  1  0  0  0  0
 13 37  1  0  0  0  0
 14 38  1  0  0  0  0
 19 39  1  0  0  0  0
 20 40  1  0  0  0  0
 21 41  1  0  0  0  0
 22 42  1  0  0  0  0
 28 43  1  0  0  0  0
 29 44  1  0  0  0  0
M  END
>  <id_input>
2633

>  <InChIKey>
YMEPVPIIHONYLV-UHFFFAOYSA-N

>  <substance_name>
3,10,17,24-tetraazaoctacyclo[13.13.2.0????,??????????.0??????,??????.0????????,??????????.0??????????,??????????.0??????????,????????.0??????????,??????????]triaconta-1(28),2,4(9),5,7,12,14,18(23),19,21,24,26,29-tridecaene-11,16-dione

>  <casrn>
8005-56-9

>  <Molecular weight>
412.3990783691406

>  <guideline>
OECD Guideline 404 (Acute Dermal Irritation / Corrosion)

>  <species>
rabbit

>  <type_of_coverage>
semiocclusive

>  <max_duration(hrs)>
4.0

>  <vehicle>
other: Polyethyleneglycol 400

>  <edema/ erythema score>
0.0

>  <max_score>
4.0

>  <reversibility>
0.0

>  <Outcome>
0

>  <StandardizerResult>
Remove Explicit Hydrogens (ID: RemoveExplicitH)
Dearomatize (ID: Dearomatize)
Clear Stereo (ID: ClearStereo)
Wedge Clean (ID: WedgeClean)
Mesomerize (ID: Mesomerize)
Tautomerize (ID: Tautomerize)
Aromatize (ID: Aromatize)
Add Explicit Hydrogens (ID: AddExplicitH)
Neutralize (ID: Neutralize)
Clean 2D (ID: Clean2D)


$$$$

  Mrv1812 02121911042D          

 73 73  0  0  0  0            999 V2000
   -7.4097   -5.9410    0.0000 C   0  0  0  0  0  0  0  0  0  0  0  0
   -6.6952   -5.5285    0.0000 C   0  0  0  0  0  0  0  0  0  0  0  0
   -5.9808   -5.9410    0.0000 C   0  0  0  0  0  0  0  0  0  0  0  0
   -5.2663   -5.5285    0.0000 C   0  0  0  0  0  0  0  0  0  0  0  0
   -4.5518   -5.9410    0.0000 C   0  0  0  0  0  0  0  0  0  0  0  0
   -3.8374   -5.5285    0.0000 C   0  0  0  0  0  0  0  0  0  0  0  0
   -3.1229   -5.9410    0.0000 C   0  0  0  0  0  0  0  0  0  0  0  0
   -2.4084   -5.5285    0.0000 C   0  0  0  0  0  0  0  0  0  0  0  0
   -1.6940   -5.9410    0.0000 C   0  0  0  0  0  0  0  0  0  0  0  0
   -0.9795   -5.5285    0.0000 C   0  0  0  0  0  0  0  0  0  0  0  0
   -0.2650   -5.9410    0.0000 C   0  0  0  0  0  0  0  0  0  0  0  0
    0.4495   -5.5285    0.0000 C   0  0  0  0  0  0  0  0  0  0  0  0
    1.1639   -5.9410    0.0000 C   0  0  0  0  0  0  0  0  0  0  0  0
    1.8784   -5.5285    0.0000 C   0  0  0  0  0  0  0  0  0  0  0  0
    2.5929   -5.9410    0.0000 C   0  0  0  0  0  0  0  0  0  0  0  0
    3.3073   -5.5285    0.0000 C   0  0  0  0  0  0  0  0  0  0  0  0
    4.0218   -5.9410    0.0000 O   0  0  0  0  0  0  0  0  0  0  0  0
    4.7363   -5.5285    0.0000 C   0  0  0  0  0  0  0  0  0  0  0  0
    4.7363   -4.7035    0.0000 O   0  0  0  0  0  0  0  0  0  0  0  0
    5.4508   -5.9410    0.0000 O   0  0  0  0  0  0  0  0  0  0  0  0
    6.1652   -5.5285    0.0000 C   0  0  0  0  0  0  0  0  0  0  0  0
    6.8797   -5.9410    0.0000 C   0  0  0  0  0  0  0  0  0  0  0  0
    7.5942   -5.5285    0.0000 C   0  0  0  0  0  0  0  0  0  0  0  0
    7.5942   -4.7035    0.0000 C   0  0  0  0  0  0  0  0  0  0  0  0
    6.8797   -4.2910    0.0000 C   0  0  0  0  0  0  0  0  0  0  0  0
    6.1652   -4.7035    0.0000 C   0  0  0  0  0  0  0  0  0  0  0  0
    5.4508   -4.2910    0.0000 Cl  0  0  0  0  0  0  0  0  0  0  0  0
    8.3086   -4.2910    0.0000 C   0  0  0  0  0  0  0  0  0  0  0  0
    9.0231   -4.7035    0.0000 O   0  0  0  0  0  0  0  0  0  0  0  0
    8.3086   -3.4660    0.0000 O   0  0  0  0  0  0  0  0  0  0  0  0
    9.0231   -3.0535    0.0000 C   0  0  0  0  0  0  0  0  0  0  0  0
    9.0231   -2.2285    0.0000 C   0  0  0  0  0  0  0  0  0  0  0  0
    6.8797   -6.7660    0.0000 Cl  0  0  0  0  0  0  0  0  0  0  0  0
   -7.8222   -5.2265    0.0000 H   0  0  0  0  0  0  0  0  0  0  0  0
   -8.1242   -6.3535    0.0000 H   0  0  0  0  0  0  0  0  0  0  0  0
   -6.9972   -6.6555    0.0000 H   0  0  0  0  0  0  0  0  0  0  0  0
   -6.3250   -4.7913    0.0000 H   0  0  0  0  0  0  0  0  0  0  0  0
   -7.0655   -4.7913    0.0000 H   0  0  0  0  0  0  0  0  0  0  0  0
   -6.3510   -6.6783    0.0000 H   0  0  0  0  0  0  0  0  0  0  0  0
   -5.6105   -6.6783    0.0000 H   0  0  0  0  0  0  0  0  0  0  0  0
   -4.8960   -4.7913    0.0000 H   0  0  0  0  0  0  0  0  0  0  0  0
   -5.6366   -4.7913    0.0000 H   0  0  0  0  0  0  0  0  0  0  0  0
   -4.9221   -6.6783    0.0000 H   0  0  0  0  0  0  0  0  0  0  0  0
   -4.1816   -6.6783    0.0000 H   0  0  0  0  0  0  0  0  0  0  0  0
   -3.4671   -4.7913    0.0000 H   0  0  0  0  0  0  0  0  0  0  0  0
   -4.2076   -4.7913    0.0000 H   0  0  0  0  0  0  0  0  0  0  0  0
   -3.4932   -6.6783    0.0000 H   0  0  0  0  0  0  0  0  0  0  0  0
   -2.7526   -6.6783    0.0000 H   0  0  0  0  0  0  0  0  0  0  0  0
   -2.0382   -4.7913    0.0000 H   0  0  0  0  0  0  0  0  0  0  0  0
   -2.7787   -4.7913    0.0000 H   0  0  0  0  0  0  0  0  0  0  0  0
   -2.0642   -6.6783    0.0000 H   0  0  0  0  0  0  0  0  0  0  0  0
   -1.3237   -6.6783    0.0000 H   0  0  0  0  0  0  0  0  0  0  0  0
   -0.6092   -4.7913    0.0000 H   0  0  0  0  0  0  0  0  0  0  0  0
   -1.3497   -4.7913    0.0000 H   0  0  0  0  0  0  0  0  0  0  0  0
   -0.6353   -6.6783    0.0000 H   0  0  0  0  0  0  0  0  0  0  0  0
    0.1052   -6.6783    0.0000 H   0  0  0  0  0  0  0  0  0  0  0  0
    0.8197   -4.7913    0.0000 H   0  0  0  0  0  0  0  0  0  0  0  0
    0.0792   -4.7913    0.0000 H   0  0  0  0  0  0  0  0  0  0  0  0
    0.7937   -6.6783    0.0000 H   0  0  0  0  0  0  0  0  0  0  0  0
    1.5342   -6.6783    0.0000 H   0  0  0  0  0  0  0  0  0  0  0  0
    2.2487   -4.7913    0.0000 H   0  0  0  0  0  0  0  0  0  0  0  0
    1.5081   -4.7913    0.0000 H   0  0  0  0  0  0  0  0  0  0  0  0
    2.2226   -6.6783    0.0000 H   0  0  0  0  0  0  0  0  0  0  0  0
    2.9631   -6.6783    0.0000 H   0  0  0  0  0  0  0  0  0  0  0  0
    3.6776   -4.7913    0.0000 H   0  0  0  0  0  0  0  0  0  0  0  0
    2.9371   -4.7913    0.0000 H   0  0  0  0  0  0  0  0  0  0  0  0
    8.3086   -5.9410    0.0000 H   0  0  0  0  0  0  0  0  0  0  0  0
    6.8797   -3.4660    0.0000 H   0  0  0  0  0  0  0  0  0  0  0  0
    9.4765   -3.7428    0.0000 H   0  0  0  0  0  0  0  0  0  0  0  0
    9.8467   -3.1015    0.0000 H   0  0  0  0  0  0  0  0  0  0  0  0
    9.8481   -2.2285    0.0000 H   0  0  0  0  0  0  0  0  0  0  0  0
    9.0231   -1.4035    0.0000 H   0  0  0  0  0  0  0  0  0  0  0  0
    8.1981   -2.2285    0.0000 H   0  0  0  0  0  0  0  0  0  0  0  0
  1  2  1  0  0  0  0
  2  3  1  0  0  0  0
  3  4  1  0  0  0  0
  4  5  1  0  0  0  0
  5  6  1  0  0  0  0
  6  7  1  0  0  0  0
  7  8  1  0  0  0  0
  8  9  1  0  0  0  0
  9 10  1  0  0  0  0
 10 11  1  0  0  0  0
 11 12  1  0  0  0  0
 12 13  1  0  0  0  0
 13 14  1  0  0  0  0
 14 15  1  0  0  0  0
 15 16  1  0  0  0  0
 16 17  1  0  0  0  0
 17 18  1  0  0  0  0
 18 19  2  0  0  0  0
 18 20  1  0  0  0  0
 20 21  1  0  0  0  0
 22 21  4  0  0  0  0
 23 22  4  0  0  0  0
 24 23  4  0  0  0  0
 25 24  4  0  0  0  0
 26 25  4  0  0  0  0
 26 27  1  0  0  0  0
 24 28  1  0  0  0  0
 28 29  2  0  0  0  0
 28 30  1  0  0  0  0
 30 31  1  0  0  0  0
 31 32  1  0  0  0  0
 22 33  1  0  0  0  0
 21 26  4  0  0  0  0
  1 34  1  0  0  0  0
  1 35  1  0  0  0  0
  1 36  1  0  0  0  0
  2 37  1  0  0  0  0
  2 38  1  0  0  0  0
  3 39  1  0  0  0  0
  3 40  1  0  0  0  0
  4 41  1  0  0  0  0
  4 42  1  0  0  0  0
  5 43  1  0  0  0  0
  5 44  1  0  0  0  0
  6 45  1  0  0  0  0
  6 46  1  0  0  0  0
  7 47  1  0  0  0  0
  7 48  1  0  0  0  0
  8 49  1  0  0  0  0
  8 50  1  0  0  0  0
  9 51  1  0  0  0  0
  9 52  1  0  0  0  0
 10 53  1  0  0  0  0
 10 54  1  0  0  0  0
 11 55  1  0  0  0  0
 11 56  1  0  0  0  0
 12 57  1  0  0  0  0
 12 58  1  0  0  0  0
 13 59  1  0  0  0  0
 13 60  1  0  0  0  0
 14 61  1  0  0  0  0
 14 62  1  0  0  0  0
 15 63  1  0  0  0  0
 15 64  1  0  0  0  0
 16 65  1  0  0  0  0
 16 66  1  0  0  0  0
 23 67  1  0  0  0  0
 25 68  1  0  0  0  0
 31 69  1  0  0  0  0
 31 70  1  0  0  0  0
 32 71  1  0  0  0  0
 32 72  1  0  0  0  0
 32 73  1  0  0  0  0
M  END
>  <id_input>
4345

>  <InChIKey>
DFMGMJBWBQNZNK-UHFFFAOYSA-N

>  <substance_name>
ethyl 3,5-dichloro-4-{[(hexadecyloxy)carbonyl]oxy}benzoate

>  <casrn>
115895-09-5

>  <Molecular weight>
503.4988098144531

>  <guideline>
EU Method B.4 (Acute Toxicity: Dermal Irritation / Corrosion)

>  <species>
rabbit

>  <type_of_coverage>
occlusive

>  <max_duration(hrs)>
4.0

>  <vehicle>
water

>  <edema/ erythema score>
0.0

>  <max_score>
4.0

>  <reversibility>
0.0

>  <Outcome>
0

>  <StandardizerResult>
Remove Explicit Hydrogens (ID: RemoveExplicitH)
Dearomatize (ID: Dearomatize)
Clear Stereo (ID: ClearStereo)
Wedge Clean (ID: WedgeClean)
Mesomerize (ID: Mesomerize)
Tautomerize (ID: Tautomerize)
Aromatize (ID: Aromatize)
Add Explicit Hydrogens (ID: AddExplicitH)
Neutralize (ID: Neutralize)
Clean 2D (ID: Clean2D)


$$$$

  Mrv1812 02121911042D          

 50 55  0  0  0  0            999 V2000
   -4.3484   -5.8005    0.0000 O   0  0  0  0  0  0  0  0  0  0  0  0
   -5.1330   -5.5455    0.0000 C   0  0  0  0  0  0  0  0  0  0  0  0
   -5.8475   -5.9580    0.0000 C   0  0  0  0  0  0  0  0  0  0  0  0
   -6.5620   -5.5455    0.0000 C   0  0  0  0  0  0  0  0  0  0  0  0
   -6.5620   -4.7205    0.0000 C   0  0  0  0  0  0  0  0  0  0  0  0
   -5.8475   -4.3080    0.0000 C   0  0  0  0  0  0  0  0  0  0  0  0
   -5.1330   -4.7205    0.0000 C   0  0  0  0  0  0  0  0  0  0  0  0
   -4.3484   -4.4656    0.0000 N   0  0  0  0  0  0  0  0  0  0  0  0
   -3.8635   -5.1330    0.0000 C   0  0  0  0  0  0  0  0  0  0  0  0
   -3.0385   -5.1330    0.0000 C   0  0  0  0  0  0  0  0  0  0  0  0
   -2.6260   -5.8475    0.0000 C   0  0  0  0  0  0  0  0  0  0  0  0
   -1.8010   -5.8475    0.0000 C   0  0  0  0  0  0  0  0  0  0  0  0
   -1.3885   -5.1330    0.0000 C   0  0  0  0  0  0  0  0  0  0  0  0
   -0.5635   -5.1330    0.0000 C   0  0  0  0  0  0  0  0  0  0  0  0
   -0.1510   -5.8475    0.0000 C   0  0  0  0  0  0  0  0  0  0  0  0
    0.6740   -5.8475    0.0000 C   0  0  0  0  0  0  0  0  0  0  0  0
    1.0865   -6.5620    0.0000 C   0  0  0  0  0  0  0  0  0  0  0  0
    1.9115   -6.5620    0.0000 C   0  0  0  0  0  0  0  0  0  0  0  0
    2.3240   -5.8475    0.0000 C   0  0  0  0  0  0  0  0  0  0  0  0
    1.9115   -5.1330    0.0000 C   0  0  0  0  0  0  0  0  0  0  0  0
    1.0865   -5.1330    0.0000 C   0  0  0  0  0  0  0  0  0  0  0  0
    3.1490   -5.8475    0.0000 C   0  0  0  0  0  0  0  0  0  0  0  0
    3.6339   -5.1801    0.0000 O   0  0  0  0  0  0  0  0  0  0  0  0
    4.4185   -5.4350    0.0000 C   0  0  0  0  0  0  0  0  0  0  0  0
    5.1330   -5.0225    0.0000 C   0  0  0  0  0  0  0  0  0  0  0  0
    5.8475   -5.4350    0.0000 C   0  0  0  0  0  0  0  0  0  0  0  0
    5.8475   -6.2600    0.0000 C   0  0  0  0  0  0  0  0  0  0  0  0
    5.1330   -6.6725    0.0000 C   0  0  0  0  0  0  0  0  0  0  0  0
    4.4185   -6.2600    0.0000 C   0  0  0  0  0  0  0  0  0  0  0  0
    3.6339   -6.5149    0.0000 N   0  0  0  0  0  0  0  0  0  0  0  0
   -1.8010   -4.4186    0.0000 C   0  0  0  0  0  0  0  0  0  0  0  0
   -2.6260   -4.4186    0.0000 C   0  0  0  0  0  0  0  0  0  0  0  0
   -5.8475   -6.7830    0.0000 H   0  0  0  0  0  0  0  0  0  0  0  0
   -7.2765   -5.9580    0.0000 H   0  0  0  0  0  0  0  0  0  0  0  0
   -7.2765   -4.3080    0.0000 H   0  0  0  0  0  0  0  0  0  0  0  0
   -5.8475   -3.4830    0.0000 H   0  0  0  0  0  0  0  0  0  0  0  0
   -3.0385   -6.5620    0.0000 H   0  0  0  0  0  0  0  0  0  0  0  0
   -1.3885   -6.5620    0.0000 H   0  0  0  0  0  0  0  0  0  0  0  0
   -0.1510   -4.4186    0.0000 H   0  0  0  0  0  0  0  0  0  0  0  0
   -0.5635   -6.5620    0.0000 H   0  0  0  0  0  0  0  0  0  0  0  0
    0.6740   -7.2764    0.0000 H   0  0  0  0  0  0  0  0  0  0  0  0
    2.3240   -7.2764    0.0000 H   0  0  0  0  0  0  0  0  0  0  0  0
    2.3240   -4.4186    0.0000 H   0  0  0  0  0  0  0  0  0  0  0  0
    0.6740   -4.4186    0.0000 H   0  0  0  0  0  0  0  0  0  0  0  0
    5.1330   -4.1975    0.0000 H   0  0  0  0  0  0  0  0  0  0  0  0
    6.5620   -5.0225    0.0000 H   0  0  0  0  0  0  0  0  0  0  0  0
    6.5620   -6.6725    0.0000 H   0  0  0  0  0  0  0  0  0  0  0  0
    5.1330   -7.4975    0.0000 H   0  0  0  0  0  0  0  0  0  0  0  0
   -1.3885   -3.7041    0.0000 H   0  0  0  0  0  0  0  0  0  0  0  0
   -3.0385   -3.7041    0.0000 H   0  0  0  0  0  0  0  0  0  0  0  0
  2  1  4  0  0  0  0
  2  3  4  0  0  0  0
  3  4  4  0  0  0  0
  4  5  4  0  0  0  0
  5  6  4  0  0  0  0
  6  7  4  0  0  0  0
  8  7  4  0  0  0  0
  9  8  4  0  0  0  0
  9 10  1  0  0  0  0
 11 10  4  0  0  0  0
 12 11  4  0  0  0  0
 13 12  4  0  0  0  0
 14 13  1  4  0  0  0
 14 15  2  0  0  0  0
 15 16  1  0  0  0  0
 17 16  4  0  0  0  0
 18 17  4  0  0  0  0
 19 18  4  0  0  0  0
 20 19  4  0  0  0  0
 21 20  4  0  0  0  0
 19 22  1  0  0  0  0
 23 22  4  0  0  0  0
 24 23  4  0  0  0  0
 24 25  4  0  0  0  0
 25 26  4  0  0  0  0
 26 27  4  0  0  0  0
 27 28  4  0  0  0  0
 28 29  4  0  0  0  0
 30 29  4  0  0  0  0
 31 13  4  0  0  0  0
 32 31  4  0  0  0  0
  1  9  4  0  0  0  0
  7  2  4  0  0  0  0
 10 32  4  0  0  0  0
 16 21  4  0  0  0  0
 22 30  4  0  0  0  0
 29 24  4  0  0  0  0
  3 33  1  0  0  0  0
  4 34  1  0  0  0  0
  5 35  1  0  0  0  0
  6 36  1  0  0  0  0
 11 37  1  0  0  0  0
 12 38  1  0  0  0  0
 14 39  1  0  0  0  0
 15 40  1  0  0  0  0
 17 41  1  0  0  0  0
 18 42  1  0  0  0  0
 20 43  1  0  0  0  0
 21 44  1  0  0  0  0
 25 45  1  0  0  0  0
 26 46  1  0  0  0  0
 27 47  1  0  0  0  0
 28 48  1  0  0  0  0
 31 49  1  0  0  0  0
 32 50  1  0  0  0  0
M  END
>  <id_input>
2020

>  <InChIKey>
ORACIQIJMCYPHQ-UHFFFAOYSA-N

>  <substance_name>
2,2'-(vinylenedi-p-phenylene)bisbenzoxazole

>  <casrn>
1533-45-5

>  <Molecular weight>
414.4547119140625

>  <guideline>
other: OECD Guideline 402 (Acute Dermal Toxicity)

>  <species>
rat

>  <type_of_coverage>
semiocclusive

>  <max_duration(hrs)>
24.0

>  <vehicle>
water

>  <edema/ erythema score>
0.0

>  <max_score>
4.0

>  <reversibility>
0.0

>  <Outcome>
0

>  <StandardizerResult>
Remove Explicit Hydrogens (ID: RemoveExplicitH)
Dearomatize (ID: Dearomatize)
Clear Stereo (ID: ClearStereo)
Wedge Clean (ID: WedgeClean)
Mesomerize (ID: Mesomerize)
Tautomerize (ID: Tautomerize)
Aromatize (ID: Aromatize)
Add Explicit Hydrogens (ID: AddExplicitH)
Neutralize (ID: Neutralize)
Clean 2D (ID: Clean2D)


$$$$

  Mrv1812 02121911042D          

 24 25  0  0  0  0            999 V2000
   -3.2409   -0.4770    0.0000 N   0  0  0  0  0  0  0  0  0  0  0  0
   -2.5265   -0.0645    0.0000 C   0  0  0  0  0  0  0  0  0  0  0  0
   -2.5265    0.7605    0.0000 C   0  0  0  0  0  0  0  0  0  0  0  0
   -1.8120    1.1730    0.0000 C   0  0  0  0  0  0  0  0  0  0  0  0
   -1.0975    0.7605    0.0000 C   0  0  0  0  0  0  0  0  0  0  0  0
   -0.3830    1.1730    0.0000 C   0  0  0  0  0  0  0  0  0  0  0  0
    0.3314    0.7605    0.0000 C   0  0  0  0  0  0  0  0  0  0  0  0
    0.3314   -0.0645    0.0000 C   0  0  0  0  0  0  0  0  0  0  0  0
   -0.3830   -0.4770    0.0000 C   0  0  0  0  0  0  0  0  0  0  0  0
   -1.0975   -0.0645    0.0000 C   0  0  0  0  0  0  0  0  0  0  0  0
   -1.8120   -0.4770    0.0000 C   0  0  0  0  0  0  0  0  0  0  0  0
    1.0459    1.1730    0.0000 S   0  0  0  0  0  0  0  0  0  0  0  0
    1.7604    1.5855    0.0000 O   0  0  0  0  0  0  0  0  0  0  0  0
    1.4584    0.4585    0.0000 O   0  0  0  0  0  0  0  0  0  0  0  0
    0.6334    1.8875    0.0000 O   0  0  0  0  0  0  0  0  0  0  0  0
   -3.9554   -0.0645    0.0000 H   0  0  0  0  0  0  0  0  0  0  0  0
   -3.2409   -1.3020    0.0000 H   0  0  0  0  0  0  0  0  0  0  0  0
   -3.2409    1.1730    0.0000 H   0  0  0  0  0  0  0  0  0  0  0  0
   -1.8120    1.9980    0.0000 H   0  0  0  0  0  0  0  0  0  0  0  0
   -0.3830    1.9980    0.0000 H   0  0  0  0  0  0  0  0  0  0  0  0
    1.0459   -0.4770    0.0000 H   0  0  0  0  0  0  0  0  0  0  0  0
   -0.3830   -1.3020    0.0000 H   0  0  0  0  0  0  0  0  0  0  0  0
   -1.8120   -1.3020    0.0000 H   0  0  0  0  0  0  0  0  0  0  0  0
    2.4748    1.1730    0.0000 H   0  0  0  0  0  0  0  0  0  0  0  0
  1  2  1  0  0  0  0
  3  2  4  0  0  0  0
  4  3  4  0  0  0  0
  5  4  4  0  0  0  0
  5  6  4  0  0  0  0
  6  7  4  0  0  0  0
  7  8  4  0  0  0  0
  8  9  4  0  0  0  0
  9 10  4  0  0  0  0
 11 10  4  0  0  0  0
  7 12  1  0  0  0  0
 12 13  1  0  0  0  0
 12 14  2  0  0  0  0
 12 15  2  0  0  0  0
  2 11  4  0  0  0  0
 10  5  4  0  0  0  0
  1 16  1  0  0  0  0
  1 17  1  0  0  0  0
  3 18  1  0  0  0  0
  4 19  1  0  0  0  0
  6 20  1  0  0  0  0
  8 21  1  0  0  0  0
  9 22  1  0  0  0  0
 11 23  1  0  0  0  0
 13 24  1  0  0  0  0
M  END
>  <id_input>
3005

>  <InChIKey>
SEMRCUIXRUXGJX-UHFFFAOYSA-N

>  <substance_name>
6-aminonaphthalene-2-sulfonic acid

>  <casrn>
93-00-5

>  <Molecular weight>
223.2483673095703

>  <guideline>
other: OECD Guideline 402 (Acute Dermal Toxicity)

>  <species>
rat

>  <type_of_coverage>
semiocclusive

>  <max_duration(hrs)>
24.0

>  <vehicle>
water

>  <edema/ erythema score>
0.0

>  <max_score>
4.0

>  <reversibility>
0.0

>  <Outcome>
0

>  <StandardizerResult>
Remove Explicit Hydrogens (ID: RemoveExplicitH)
Dearomatize (ID: Dearomatize)
Clear Stereo (ID: ClearStereo)
Wedge Clean (ID: WedgeClean)
Mesomerize (ID: Mesomerize)
Tautomerize (ID: Tautomerize)
Aromatize (ID: Aromatize)
Add Explicit Hydrogens (ID: AddExplicitH)
Neutralize (ID: Neutralize)
Clean 2D (ID: Clean2D)


$$$$

  Mrv1812 02121911042D          

 21 22  0  0  0  0            999 V2000
    1.2028    0.2709    0.0000 C   0  0  0  0  0  0  0  0  0  0  0  0
    0.4884    0.6834    0.0000 N   0  0  0  0  0  0  0  0  0  0  0  0
    0.4884    1.5084    0.0000 C   0  0  0  0  0  0  0  0  0  0  0  0
    1.2028    1.9209    0.0000 O   0  0  0  0  0  0  0  0  0  0  0  0
   -0.2261    1.9209    0.0000 N   0  0  0  0  0  0  0  0  0  0  0  0
   -0.2261    2.7459    0.0000 C   0  0  0  0  0  0  0  0  0  0  0  0
   -0.9406    1.5084    0.0000 C   0  0  0  0  0  0  0  0  0  0  0  0
   -1.7252    1.7633    0.0000 N   0  0  0  0  0  0  0  0  0  0  0  0
   -2.2101    1.0959    0.0000 C   0  0  0  0  0  0  0  0  0  0  0  0
   -1.7252    0.4285    0.0000 N   0  0  0  0  0  0  0  0  0  0  0  0
   -0.9406    0.6834    0.0000 C   0  0  0  0  0  0  0  0  0  0  0  0
   -0.2261    0.2709    0.0000 C   0  0  0  0  0  0  0  0  0  0  0  0
   -0.2261   -0.5541    0.0000 O   0  0  0  0  0  0  0  0  0  0  0  0
    0.7903   -0.4436    0.0000 H   0  0  0  0  0  0  0  0  0  0  0  0
    1.9173   -0.1416    0.0000 H   0  0  0  0  0  0  0  0  0  0  0  0
    1.6153    0.9854    0.0000 H   0  0  0  0  0  0  0  0  0  0  0  0
    0.5989    2.7459    0.0000 H   0  0  0  0  0  0  0  0  0  0  0  0
   -0.2261    3.5709    0.0000 H   0  0  0  0  0  0  0  0  0  0  0  0
   -1.0511    2.7459    0.0000 H   0  0  0  0  0  0  0  0  0  0  0  0
   -3.0351    1.0959    0.0000 H   0  0  0  0  0  0  0  0  0  0  0  0
   -1.9801   -0.3562    0.0000 H   0  0  0  0  0  0  0  0  0  0  0  0
  1  2  1  0  0  0  0
  3  2  1  0  0  0  0
  3  4  2  0  0  0  0
  5  3  1  0  0  0  0
  5  6  1  0  0  0  0
  7  5  1  0  0  0  0
  7  8  4  0  0  0  0
  8  9  4  0  0  0  0
  9 10  4  0  0  0  0
 10 11  4  0  0  0  0
 12 11  1  0  0  0  0
 12 13  2  0  0  0  0
  2 12  1  0  0  0  0
 11  7  4  0  0  0  0
  1 14  1  0  0  0  0
  1 15  1  0  0  0  0
  1 16  1  0  0  0  0
  6 17  1  0  0  0  0
  6 18  1  0  0  0  0
  6 19  1  0  0  0  0
  9 20  1  0  0  0  0
 10 21  1  0  0  0  0
M  END
>  <id_input>
1785

>  <InChIKey>
ZFXYFBGIUFBOJW-UHFFFAOYSA-N

>  <substance_name>
1,3-dimethyl-3,7-dihydro-1H-purine-2,6-dione

>  <casrn>
58-55-9

>  <Molecular weight>
180.1640167236328

>  <guideline>
OECD Guideline 404 (Acute Dermal Irritation / Corrosion)

>  <species>
rabbit

>  <type_of_coverage>
semiocclusive

>  <max_duration(hrs)>
4.0

>  <vehicle>
water

>  <edema/ erythema score>
0.0

>  <max_score>
4.0

>  <reversibility>
0.0

>  <Outcome>
0

>  <StandardizerResult>
Remove Explicit Hydrogens (ID: RemoveExplicitH)
Dearomatize (ID: Dearomatize)
Clear Stereo (ID: ClearStereo)
Wedge Clean (ID: WedgeClean)
Mesomerize (ID: Mesomerize)
Tautomerize (ID: Tautomerize)
Aromatize (ID: Aromatize)
Add Explicit Hydrogens (ID: AddExplicitH)
Neutralize (ID: Neutralize)
Clean 2D (ID: Clean2D)


$$$$

  Mrv1812 02121911042D          

 18 18  0  0  0  0            999 V2000
    0.5907    0.6655    0.0000 C   0  0  0  0  0  0  0  0  0  0  0  0
   -0.1238    1.0780    0.0000 C   0  0  0  0  0  0  0  0  0  0  0  0
   -0.8382    0.6655    0.0000 C   0  0  0  0  0  0  0  0  0  0  0  0
   -0.8382   -0.1595    0.0000 C   0  0  0  0  0  0  0  0  0  0  0  0
   -0.1238   -0.5720    0.0000 C   0  0  0  0  0  0  0  0  0  0  0  0
    0.5907   -0.1595    0.0000 C   0  0  0  0  0  0  0  0  0  0  0  0
    1.3052   -0.5720    0.0000 N   0  0  0  0  0  0  0  0  0  0  0  0
    2.0196   -0.1595    0.0000 O   0  0  0  0  0  0  0  0  0  0  0  0
    1.3052   -1.3970    0.0000 O   0  0  0  0  0  0  0  0  0  0  0  0
   -1.5527   -0.5720    0.0000 C   0  0  0  0  0  0  0  0  0  0  0  0
   -1.5527   -1.3970    0.0000 Cl  0  0  0  0  0  0  0  0  0  0  0  0
   -1.5527    1.0780    0.0000 O   0  0  0  0  0  0  0  0  0  0  0  0
    1.3052    1.0780    0.0000 H   0  0  0  0  0  0  0  0  0  0  0  0
   -0.1238    1.9030    0.0000 H   0  0  0  0  0  0  0  0  0  0  0  0
   -0.1238   -1.3970    0.0000 H   0  0  0  0  0  0  0  0  0  0  0  0
   -2.0061    0.1173    0.0000 H   0  0  0  0  0  0  0  0  0  0  0  0
   -2.3763   -0.5240    0.0000 H   0  0  0  0  0  0  0  0  0  0  0  0
   -1.5527    1.9030    0.0000 H   0  0  0  0  0  0  0  0  0  0  0  0
  2  1  4  0  0  0  0
  3  2  4  0  0  0  0
  4  3  4  0  0  0  0
  5  4  4  0  0  0  0
  6  5  4  0  0  0  0
  6  7  1  0  0  0  0
  7  8  2  0  0  0  0
  7  9  2  0  0  0  0
  4 10  1  0  0  0  0
 10 11  1  0  0  0  0
  3 12  1  0  0  0  0
  1  6  4  0  0  0  0
  1 13  1  0  0  0  0
  2 14  1  0  0  0  0
  5 15  1  0  0  0  0
 10 16  1  0  0  0  0
 10 17  1  0  0  0  0
 12 18  1  0  0  0  0
M  END
>  <id_input>
1973, 1974

>  <InChIKey>
PJNPZIYGODMAQE-UHFFFAOYSA-N

>  <substance_name>
10,11-dioctylicosanedioic acid; 8-[2-(7-carboxyheptyl)-5,6-dipentyl-decahydronaphthalen-1-yl]octanoic acid; 9-[6-(8-carboxyoctyl)-2-heptyl-3-pentylcyclohexyl]nonanoic acid

>  <casrn>
68783-41-5

>  <Molecular weight>
187.5804443359375

>  <guideline>
EU Method B.4 (Acute Toxicity: Dermal Irritation / Corrosion)

>  <species>
rabbit

>  <type_of_coverage>
semiocclusive

>  <max_duration(hrs)>
4.0

>  <vehicle>
unchanged (no vehicle)

>  <edema/ erythema score>
1.05

>  <max_score>
4.0

>  <reversibility>
0.0

>  <Outcome>
0

>  <StandardizerResult>
Remove Explicit Hydrogens (ID: RemoveExplicitH)
Dearomatize (ID: Dearomatize)
Clear Stereo (ID: ClearStereo)
Wedge Clean (ID: WedgeClean)
Mesomerize (ID: Mesomerize)
Tautomerize (ID: Tautomerize)
Aromatize (ID: Aromatize)
Add Explicit Hydrogens (ID: AddExplicitH)
Neutralize (ID: Neutralize)
Clean 2D (ID: Clean2D)


$$$$

  Mrv1812 02121911042D          

 16 16  0  0  0  0            999 V2000
    1.3295    1.4400    0.0000 N   0  0  0  0  0  0  0  0  0  0  0  0
    0.6150    1.0275    0.0000 C   0  0  0  0  0  0  0  0  0  0  0  0
   -0.0994    1.4400    0.0000 C   0  0  0  0  0  0  0  0  0  0  0  0
   -0.8139    1.0275    0.0000 C   0  0  0  0  0  0  0  0  0  0  0  0
   -1.5284    1.4400    0.0000 Cl  0  0  0  0  0  0  0  0  0  0  0  0
   -0.8139    0.2025    0.0000 N   0  0  0  0  0  0  0  0  0  0  0  0
   -0.0994   -0.2100    0.0000 C   0  0  0  0  0  0  0  0  0  0  0  0
   -0.0994   -1.0350    0.0000 C   0  0  0  0  0  0  0  0  0  0  0  0
    0.6150   -1.4475    0.0000 O   0  0  0  0  0  0  0  0  0  0  0  0
   -0.8139   -1.4475    0.0000 O   0  0  0  0  0  0  0  0  0  0  0  0
    0.6150    0.2025    0.0000 C   0  0  0  0  0  0  0  0  0  0  0  0
    1.3295   -0.2100    0.0000 Cl  0  0  0  0  0  0  0  0  0  0  0  0
    2.0440    1.0275    0.0000 H   0  0  0  0  0  0  0  0  0  0  0  0
    1.3295    2.2650    0.0000 H   0  0  0  0  0  0  0  0  0  0  0  0
   -0.0994    2.2650    0.0000 H   0  0  0  0  0  0  0  0  0  0  0  0
    0.6150   -2.2725    0.0000 H   0  0  0  0  0  0  0  0  0  0  0  0
  1  2  1  0  0  0  0
  3  2  4  0  0  0  0
  4  3  4  0  0  0  0
  4  5  1  0  0  0  0
  6  4  4  0  0  0  0
  7  6  4  0  0  0  0
  7  8  1  0  0  0  0
  8  9  1  0  0  0  0
  8 10  2  0  0  0  0
 11  7  4  0  0  0  0
 11 12  1  0  0  0  0
  2 11  4  0  0  0  0
  1 13  1  0  0  0  0
  1 14  1  0  0  0  0
  3 15  1  0  0  0  0
  9 16  1  0  0  0  0
M  END
>  <id_input>
428

>  <InChIKey>
NIXXQNOQHKNPEJ-UHFFFAOYSA-N

>  <substance_name>
-

>  <casrn>
150114-71-9

>  <Molecular weight>
207.01416015625

>  <guideline>
OECD Guideline 404 (Acute Dermal Irritation / Corrosion)

>  <species>
rabbit

>  <type_of_coverage>
semiocclusive

>  <max_duration(hrs)>
4.0

>  <vehicle>
unchanged (no vehicle)

>  <edema/ erythema score>
0.0

>  <max_score>
4.0

>  <reversibility>
0.0

>  <Outcome>
0

>  <StandardizerResult>
Remove Explicit Hydrogens (ID: RemoveExplicitH)
Dearomatize (ID: Dearomatize)
Clear Stereo (ID: ClearStereo)
Wedge Clean (ID: WedgeClean)
Mesomerize (ID: Mesomerize)
Tautomerize (ID: Tautomerize)
Aromatize (ID: Aromatize)
Add Explicit Hydrogens (ID: AddExplicitH)
Neutralize (ID: Neutralize)
Clean 2D (ID: Clean2D)


$$$$

  Mrv1812 02121911042D          

 43 44  0  0  0  0            999 V2000
    2.6502   -1.1916    0.0000 C   0  0  0  0  0  0  0  0  0  0  0  0
    2.1199   -1.8235    0.0000 C   0  0  0  0  0  0  0  0  0  0  0  0
    1.3075   -1.6803    0.0000 O   0  0  0  0  0  0  0  0  0  0  0  0
    0.7772   -2.3123    0.0000 C   0  0  0  0  0  0  0  0  0  0  0  0
    1.0593   -3.0875    0.0000 O   0  0  0  0  0  0  0  0  0  0  0  0
   -0.0353   -2.1690    0.0000 C   0  0  0  0  0  0  0  0  0  0  0  0
   -0.7498   -1.7565    0.0000 C   0  0  0  0  0  0  0  0  0  0  0  0
   -1.4642   -2.1690    0.0000 C   0  0  0  0  0  0  0  0  0  0  0  0
   -1.4642   -2.9940    0.0000 C   0  0  0  0  0  0  0  0  0  0  0  0
   -0.7498   -3.4065    0.0000 C   0  0  0  0  0  0  0  0  0  0  0  0
   -0.0353   -2.9940    0.0000 C   0  0  0  0  0  0  0  0  0  0  0  0
    0.2469   -1.3938    0.0000 O   0  0  0  0  0  0  0  0  0  0  0  0
   -0.2834   -0.7618    0.0000 C   0  0  0  0  0  0  0  0  0  0  0  0
   -1.0959   -0.9050    0.0000 O   0  0  0  0  0  0  0  0  0  0  0  0
   -0.0013    0.0135    0.0000 C   0  0  0  0  0  0  0  0  0  0  0  0
   -0.5316    0.6455    0.0000 C   0  0  0  0  0  0  0  0  0  0  0  0
   -0.2494    1.4207    0.0000 C   0  0  0  0  0  0  0  0  0  0  0  0
   -0.7797    2.0527    0.0000 C   0  0  0  0  0  0  0  0  0  0  0  0
   -1.5922    1.9094    0.0000 C   0  0  0  0  0  0  0  0  0  0  0  0
   -1.8743    1.1342    0.0000 C   0  0  0  0  0  0  0  0  0  0  0  0
   -1.3440    0.5022    0.0000 C   0  0  0  0  0  0  0  0  0  0  0  0
   -1.6262   -0.2731    0.0000 Cl  0  0  0  0  0  0  0  0  0  0  0  0
   -2.1225    2.5414    0.0000 Cl  0  0  0  0  0  0  0  0  0  0  0  0
    3.2822   -1.7219    0.0000 H   0  0  0  0  0  0  0  0  0  0  0  0
    3.1805   -0.5596    0.0000 H   0  0  0  0  0  0  0  0  0  0  0  0
    2.0182   -0.6613    0.0000 H   0  0  0  0  0  0  0  0  0  0  0  0
    2.0242   -2.6430    0.0000 H   0  0  0  0  0  0  0  0  0  0  0  0
    2.7200   -2.3897    0.0000 H   0  0  0  0  0  0  0  0  0  0  0  0
   -0.1277   -1.2146    0.0000 H   0  0  0  0  0  0  0  0  0  0  0  0
   -0.7498   -2.5815    0.0000 H   0  0  0  0  0  0  0  0  0  0  0  0
   -1.9176   -1.4797    0.0000 H   0  0  0  0  0  0  0  0  0  0  0  0
   -2.2878   -2.1210    0.0000 H   0  0  0  0  0  0  0  0  0  0  0  0
   -2.2878   -3.0420    0.0000 H   0  0  0  0  0  0  0  0  0  0  0  0
   -1.9176   -3.6833    0.0000 H   0  0  0  0  0  0  0  0  0  0  0  0
   -1.1200   -4.1438    0.0000 H   0  0  0  0  0  0  0  0  0  0  0  0
   -0.3795   -4.1438    0.0000 H   0  0  0  0  0  0  0  0  0  0  0  0
    0.4180   -3.6833    0.0000 H   0  0  0  0  0  0  0  0  0  0  0  0
    0.7883   -3.0420    0.0000 H   0  0  0  0  0  0  0  0  0  0  0  0
    0.7891   -0.2231    0.0000 H   0  0  0  0  0  0  0  0  0  0  0  0
    0.6605    0.5061    0.0000 H   0  0  0  0  0  0  0  0  0  0  0  0
    0.5631    1.5640    0.0000 H   0  0  0  0  0  0  0  0  0  0  0  0
   -0.4975    2.8279    0.0000 H   0  0  0  0  0  0  0  0  0  0  0  0
   -2.6868    0.9909    0.0000 H   0  0  0  0  0  0  0  0  0  0  0  0
  1  2  1  0  0  0  0
  2  3  1  0  0  0  0
  3  4  1  0  0  0  0
  4  5  2  0  0  0  0
  4  6  1  0  0  0  0
  7  6  1  0  0  0  0
  8  7  1  0  0  0  0
  9  8  1  0  0  0  0
 10  9  1  0  0  0  0
 11 10  1  0  0  0  0
  6 12  1  0  0  0  0
 12 13  1  0  0  0  0
 13 14  2  0  0  0  0
 13 15  1  0  0  0  0
 15 16  1  0  0  0  0
 17 16  4  0  0  0  0
 18 17  4  0  0  0  0
 19 18  4  0  0  0  0
 20 19  4  0  0  0  0
 21 20  4  0  0  0  0
 21 22  1  0  0  0  0
 19 23  1  0  0  0  0
  6 11  1  0  0  0  0
 16 21  4  0  0  0  0
  1 24  1  0  0  0  0
  1 25  1  0  0  0  0
  1 26  1  0  0  0  0
  2 27  1  0  0  0  0
  2 28  1  0  0  0  0
  7 29  1  0  0  0  0
  7 30  1  0  0  0  0
  8 31  1  0  0  0  0
  8 32  1  0  0  0  0
  9 33  1  0  0  0  0
  9 34  1  0  0  0  0
 10 35  1  0  0  0  0
 10 36  1  0  0  0  0
 11 37  1  0  0  0  0
 11 38  1  0  0  0  0
 15 39  1  0  0  0  0
 15 40  1  0  0  0  0
 17 41  1  0  0  0  0
 18 42  1  0  0  0  0
 20 43  1  0  0  0  0
M  END
>  <id_input>
818

>  <InChIKey>
RDKYUGAYISTHTP-UHFFFAOYSA-N

>  <substance_name>
-

>  <casrn>
361366-16-7

>  <Molecular weight>
359.2442932128906

>  <guideline>
EU Method B.4 (Acute Toxicity: Dermal Irritation / Corrosion)

>  <species>
rabbit

>  <type_of_coverage>
semiocclusive

>  <max_duration(hrs)>
4.0

>  <vehicle>
unchanged (no vehicle)

>  <edema/ erythema score>
0.11

>  <max_score>
1.0

>  <reversibility>
0.0

>  <Outcome>
0

>  <StandardizerResult>
Remove Explicit Hydrogens (ID: RemoveExplicitH)
Dearomatize (ID: Dearomatize)
Clear Stereo (ID: ClearStereo)
Wedge Clean (ID: WedgeClean)
Mesomerize (ID: Mesomerize)
Tautomerize (ID: Tautomerize)
Aromatize (ID: Aromatize)
Add Explicit Hydrogens (ID: AddExplicitH)
Neutralize (ID: Neutralize)
Clean 2D (ID: Clean2D)


$$$$

  Mrv1812 02121911042D          

 36 39  0  0  0  0            999 V2000
    1.6543    0.0161    0.0000 C   0  0  0  0  0  0  0  0  0  0  0  0
    0.9398    0.4286    0.0000 C   0  0  0  0  0  0  0  0  0  0  0  0
    0.9398    1.2536    0.0000 C   0  0  0  0  0  0  0  0  0  0  0  0
    0.2253    1.6661    0.0000 C   0  0  0  0  0  0  0  0  0  0  0  0
   -0.4892    1.2536    0.0000 C   0  0  0  0  0  0  0  0  0  0  0  0
   -1.2738    1.5085    0.0000 O   0  0  0  0  0  0  0  0  0  0  0  0
   -1.7587    0.8411    0.0000 C   0  0  0  0  0  0  0  0  0  0  0  0
   -2.5837    0.8411    0.0000 C   0  0  0  0  0  0  0  0  0  0  0  0
   -2.9962    1.5555    0.0000 C   0  0  0  0  0  0  0  0  0  0  0  0
   -3.8212    1.5555    0.0000 C   0  0  0  0  0  0  0  0  0  0  0  0
   -4.3061    0.8881    0.0000 O   0  0  0  0  0  0  0  0  0  0  0  0
   -5.0907    1.1430    0.0000 C   0  0  0  0  0  0  0  0  0  0  0  0
   -5.8052    0.7305    0.0000 C   0  0  0  0  0  0  0  0  0  0  0  0
   -6.5197    1.1430    0.0000 C   0  0  0  0  0  0  0  0  0  0  0  0
   -6.5197    1.9680    0.0000 C   0  0  0  0  0  0  0  0  0  0  0  0
   -7.2342    2.3805    0.0000 C   0  0  0  0  0  0  0  0  0  0  0  0
   -5.8052    2.3805    0.0000 C   0  0  0  0  0  0  0  0  0  0  0  0
   -5.0907    1.9680    0.0000 C   0  0  0  0  0  0  0  0  0  0  0  0
   -4.3061    2.2230    0.0000 N   0  0  0  0  0  0  0  0  0  0  0  0
   -1.2738    0.1736    0.0000 N   0  0  0  0  0  0  0  0  0  0  0  0
   -0.4892    0.4286    0.0000 C   0  0  0  0  0  0  0  0  0  0  0  0
    0.2253    0.0161    0.0000 C   0  0  0  0  0  0  0  0  0  0  0  0
    1.2418   -0.6984    0.0000 H   0  0  0  0  0  0  0  0  0  0  0  0
    2.3687   -0.3964    0.0000 H   0  0  0  0  0  0  0  0  0  0  0  0
    2.0668    0.7305    0.0000 H   0  0  0  0  0  0  0  0  0  0  0  0
    1.6543    1.6661    0.0000 H   0  0  0  0  0  0  0  0  0  0  0  0
    0.2253    2.4911    0.0000 H   0  0  0  0  0  0  0  0  0  0  0  0
   -2.9962    0.1266    0.0000 H   0  0  0  0  0  0  0  0  0  0  0  0
   -2.5837    2.2700    0.0000 H   0  0  0  0  0  0  0  0  0  0  0  0
   -5.8052   -0.0945    0.0000 H   0  0  0  0  0  0  0  0  0  0  0  0
   -7.2342    0.7305    0.0000 H   0  0  0  0  0  0  0  0  0  0  0  0
   -6.8217    3.0950    0.0000 H   0  0  0  0  0  0  0  0  0  0  0  0
   -7.9486    2.7930    0.0000 H   0  0  0  0  0  0  0  0  0  0  0  0
   -7.6467    1.6661    0.0000 H   0  0  0  0  0  0  0  0  0  0  0  0
   -5.8052    3.2055    0.0000 H   0  0  0  0  0  0  0  0  0  0  0  0
    0.2253   -0.8089    0.0000 H   0  0  0  0  0  0  0  0  0  0  0  0
  1  2  1  0  0  0  0
  3  2  4  0  0  0  0
  4  3  4  0  0  0  0
  5  4  4  0  0  0  0
  5  6  4  0  0  0  0
  6  7  4  0  0  0  0
  8  7  1  4  0  0  0
  8  9  2  0  0  0  0
  9 10  1  0  0  0  0
 11 10  4  0  0  0  0
 12 11  4  0  0  0  0
 12 13  4  0  0  0  0
 13 14  4  0  0  0  0
 14 15  4  0  0  0  0
 15 16  1  0  0  0  0
 15 17  4  0  0  0  0
 17 18  4  0  0  0  0
 19 18  4  0  0  0  0
  7 20  4  0  0  0  0
 20 21  4  0  0  0  0
 22 21  4  0  0  0  0
  2 22  4  0  0  0  0
 21  5  4  0  0  0  0
 10 19  4  0  0  0  0
 18 12  4  0  0  0  0
  1 23  1  0  0  0  0
  1 24  1  0  0  0  0
  1 25  1  0  0  0  0
  3 26  1  0  0  0  0
  4 27  1  0  0  0  0
  8 28  1  0  0  0  0
  9 29  1  0  0  0  0
 13 30  1  0  0  0  0
 14 31  1  0  0  0  0
 16 32  1  0  0  0  0
 16 33  1  0  0  0  0
 16 34  1  0  0  0  0
 17 35  1  0  0  0  0
 22 36  1  0  0  0  0
M  END
>  <id_input>
2043

>  <InChIKey>
VKRZNAWSCAUDRQ-UHFFFAOYSA-N

>  <substance_name>
2,2'-vinylenebis[5-methylbenzoxazole]

>  <casrn>
1041-00-5

>  <Molecular weight>
290.31597900390625

>  <guideline>
OECD Guideline 404 (Acute Dermal Irritation / Corrosion)

>  <species>
rabbit

>  <type_of_coverage>
occlusive

>  <max_duration(hrs)>
24.0

>  <vehicle>
unchanged (no vehicle)

>  <edema/ erythema score>
0.575

>  <reversibility>
0.0

>  <Outcome>
0

>  <StandardizerResult>
Remove Explicit Hydrogens (ID: RemoveExplicitH)
Dearomatize (ID: Dearomatize)
Clear Stereo (ID: ClearStereo)
Wedge Clean (ID: WedgeClean)
Mesomerize (ID: Mesomerize)
Tautomerize (ID: Tautomerize)
Aromatize (ID: Aromatize)
Add Explicit Hydrogens (ID: AddExplicitH)
Neutralize (ID: Neutralize)
Clean 2D (ID: Clean2D)


$$$$

  Mrv1812 02121911042D          

 91 94  0  0  0  0            999 V2000
   -4.9751    3.1539    0.0000 C   0  0  0  0  0  0  0  0  0  0  0  0
   -4.5626    2.4395    0.0000 C   0  0  0  0  0  0  0  0  0  0  0  0
   -5.2771    2.0270    0.0000 C   0  0  0  0  0  0  0  0  0  0  0  0
   -3.8481    2.8520    0.0000 C   0  0  0  0  0  0  0  0  0  0  0  0
   -4.1501    1.7250    0.0000 C   0  0  0  0  0  0  0  0  0  0  0  0
   -3.3251    1.7250    0.0000 C   0  0  0  0  0  0  0  0  0  0  0  0
   -2.9126    1.0105    0.0000 C   0  0  0  0  0  0  0  0  0  0  0  0
   -3.3251    0.2961    0.0000 C   0  0  0  0  0  0  0  0  0  0  0  0
   -2.9126   -0.4184    0.0000 O   0  0  0  0  0  0  0  0  0  0  0  0
   -2.0876   -0.4184    0.0000 P   0  0  0  0  0  0  0  0  0  0  0  0
   -1.6751   -1.1329    0.0000 O   0  0  0  0  0  0  0  0  0  0  0  0
   -0.8501   -1.1329    0.0000 C   0  0  0  0  0  0  0  0  0  0  0  0
   -0.4376   -0.4184    0.0000 C   0  0  0  0  0  0  0  0  0  0  0  0
   -0.8501    0.2961    0.0000 C   0  0  0  0  0  0  0  0  0  0  0  0
   -1.6751    0.2961    0.0000 O   0  0  0  0  0  0  0  0  0  0  0  0
   -0.0251   -1.1329    0.0000 C   0  0  0  0  0  0  0  0  0  0  0  0
    0.7999   -1.1329    0.0000 O   0  0  0  0  0  0  0  0  0  0  0  0
    1.2124   -0.4184    0.0000 P   0  0  0  0  0  0  0  0  0  0  0  0
    0.7999    0.2961    0.0000 O   0  0  0  0  0  0  0  0  0  0  0  0
   -0.0251    0.2961    0.0000 C   0  0  0  0  0  0  0  0  0  0  0  0
    2.0374   -0.4184    0.0000 O   0  0  0  0  0  0  0  0  0  0  0  0
    2.4499    0.2961    0.0000 C   0  0  0  0  0  0  0  0  0  0  0  0
    2.0374    1.0105    0.0000 C   0  0  0  0  0  0  0  0  0  0  0  0
    2.4499    1.7250    0.0000 C   0  0  0  0  0  0  0  0  0  0  0  0
    3.2749    1.7250    0.0000 C   0  0  0  0  0  0  0  0  0  0  0  0
    3.6874    1.0105    0.0000 C   0  0  0  0  0  0  0  0  0  0  0  0
    3.2749    0.2961    0.0000 C   0  0  0  0  0  0  0  0  0  0  0  0
    3.6874   -0.4184    0.0000 C   0  0  0  0  0  0  0  0  0  0  0  0
    4.0999   -1.1329    0.0000 C   0  0  0  0  0  0  0  0  0  0  0  0
    4.4019   -0.0059    0.0000 C   0  0  0  0  0  0  0  0  0  0  0  0
    2.9729   -0.8309    0.0000 C   0  0  0  0  0  0  0  0  0  0  0  0
    3.6874    2.4395    0.0000 C   0  0  0  0  0  0  0  0  0  0  0  0
    4.0999    3.1539    0.0000 C   0  0  0  0  0  0  0  0  0  0  0  0
    4.4019    2.0270    0.0000 C   0  0  0  0  0  0  0  0  0  0  0  0
    2.9729    2.8520    0.0000 C   0  0  0  0  0  0  0  0  0  0  0  0
   -4.1501    0.2961    0.0000 C   0  0  0  0  0  0  0  0  0  0  0  0
   -4.5626    1.0105    0.0000 C   0  0  0  0  0  0  0  0  0  0  0  0
   -4.5626   -0.4184    0.0000 C   0  0  0  0  0  0  0  0  0  0  0  0
   -4.9751   -1.1329    0.0000 C   0  0  0  0  0  0  0  0  0  0  0  0
   -3.8481   -0.8309    0.0000 C   0  0  0  0  0  0  0  0  0  0  0  0
   -5.2771   -0.0059    0.0000 C   0  0  0  0  0  0  0  0  0  0  0  0
   -4.2606    3.5664    0.0000 H   0  0  0  0  0  0  0  0  0  0  0  0
   -5.3876    3.8684    0.0000 H   0  0  0  0  0  0  0  0  0  0  0  0
   -5.6896    2.7414    0.0000 H   0  0  0  0  0  0  0  0  0  0  0  0
   -6.0950    1.9193    0.0000 H   0  0  0  0  0  0  0  0  0  0  0  0
   -5.4906    1.2301    0.0000 H   0  0  0  0  0  0  0  0  0  0  0  0
   -4.6226    1.5247    0.0000 H   0  0  0  0  0  0  0  0  0  0  0  0
   -3.7404    2.0340    0.0000 H   0  0  0  0  0  0  0  0  0  0  0  0
   -3.0512    2.6384    0.0000 H   0  0  0  0  0  0  0  0  0  0  0  0
   -3.3459    3.5065    0.0000 H   0  0  0  0  0  0  0  0  0  0  0  0
   -2.5057    1.8206    0.0000 H   0  0  0  0  0  0  0  0  0  0  0  0
   -2.1865    0.6189    0.0000 H   0  0  0  0  0  0  0  0  0  0  0  0
   -1.1323   -1.9081    0.0000 H   0  0  0  0  0  0  0  0  0  0  0  0
   -0.5679   -1.9081    0.0000 H   0  0  0  0  0  0  0  0  0  0  0  0
   -0.5679    1.0713    0.0000 H   0  0  0  0  0  0  0  0  0  0  0  0
   -1.1323    1.0713    0.0000 H   0  0  0  0  0  0  0  0  0  0  0  0
    0.3558   -1.8647    0.0000 H   0  0  0  0  0  0  0  0  0  0  0  0
    0.3874   -0.4184    0.0000 H   0  0  0  0  0  0  0  0  0  0  0  0
    0.5912    0.8445    0.0000 H   0  0  0  0  0  0  0  0  0  0  0  0
    0.0707    1.1155    0.0000 H   0  0  0  0  0  0  0  0  0  0  0  0
    1.2124    1.0105    0.0000 H   0  0  0  0  0  0  0  0  0  0  0  0
    2.0374    2.4395    0.0000 H   0  0  0  0  0  0  0  0  0  0  0  0
    4.5124    1.0105    0.0000 H   0  0  0  0  0  0  0  0  0  0  0  0
    3.3854   -1.5454    0.0000 H   0  0  0  0  0  0  0  0  0  0  0  0
    4.5124   -1.8474    0.0000 H   0  0  0  0  0  0  0  0  0  0  0  0
    4.8144   -0.7204    0.0000 H   0  0  0  0  0  0  0  0  0  0  0  0
    5.2198    0.1018    0.0000 H   0  0  0  0  0  0  0  0  0  0  0  0
    4.6154    0.7910    0.0000 H   0  0  0  0  0  0  0  0  0  0  0  0
    3.7473    0.4963    0.0000 H   0  0  0  0  0  0  0  0  0  0  0  0
    2.8652   -0.0130    0.0000 H   0  0  0  0  0  0  0  0  0  0  0  0
    2.1760   -0.6174    0.0000 H   0  0  0  0  0  0  0  0  0  0  0  0
    2.4707   -1.4854    0.0000 H   0  0  0  0  0  0  0  0  0  0  0  0
    4.8144    2.7414    0.0000 H   0  0  0  0  0  0  0  0  0  0  0  0
    4.5124    3.8684    0.0000 H   0  0  0  0  0  0  0  0  0  0  0  0
    3.3854    3.5664    0.0000 H   0  0  0  0  0  0  0  0  0  0  0  0
    3.7473    1.5247    0.0000 H   0  0  0  0  0  0  0  0  0  0  0  0
    4.6154    1.2301    0.0000 H   0  0  0  0  0  0  0  0  0  0  0  0
    5.2198    1.9193    0.0000 H   0  0  0  0  0  0  0  0  0  0  0  0
    2.4707    3.5065    0.0000 H   0  0  0  0  0  0  0  0  0  0  0  0
    2.1760    2.6384    0.0000 H   0  0  0  0  0  0  0  0  0  0  0  0
    2.8652    2.0340    0.0000 H   0  0  0  0  0  0  0  0  0  0  0  0
   -5.0551    0.3487    0.0000 H   0  0  0  0  0  0  0  0  0  0  0  0
   -5.6896   -0.7204    0.0000 H   0  0  0  0  0  0  0  0  0  0  0  0
   -5.3876   -1.8474    0.0000 H   0  0  0  0  0  0  0  0  0  0  0  0
   -4.2606   -1.5454    0.0000 H   0  0  0  0  0  0  0  0  0  0  0  0
   -3.3459   -1.4854    0.0000 H   0  0  0  0  0  0  0  0  0  0  0  0
   -3.0512   -0.6174    0.0000 H   0  0  0  0  0  0  0  0  0  0  0  0
   -3.7404   -0.0130    0.0000 H   0  0  0  0  0  0  0  0  0  0  0  0
   -5.4692    0.7964    0.0000 H   0  0  0  0  0  0  0  0  0  0  0  0
   -5.9841    0.4193    0.0000 H   0  0  0  0  0  0  0  0  0  0  0  0
   -6.0758   -0.2123    0.0000 H   0  0  0  0  0  0  0  0  0  0  0  0
  1  2  1  0  0  0  0
  2  3  1  0  0  0  0
  2  4  1  0  0  0  0
  2  5  1  0  0  0  0
  6  5  4  0  0  0  0
  7  6  4  0  0  0  0
  8  7  4  0  0  0  0
  8  9  1  0  0  0  0
  9 10  1  0  0  0  0
 11 10  1  0  0  0  0
 12 11  1  0  0  0  0
 13 12  1  0  0  0  0
 14 13  1  0  0  0  0
 15 14  1  0  0  0  0
 16 13  1  0  0  0  0
 17 16  1  0  0  0  0
 18 17  1  0  0  0  0
 19 18  1  0  0  0  0
 20 19  1  0  0  0  0
 18 21  1  0  0  0  0
 21 22  1  0  0  0  0
 23 22  4  0  0  0  0
 24 23  4  0  0  0  0
 25 24  4  0  0  0  0
 26 25  4  0  0  0  0
 27 26  4  0  0  0  0
 27 28  1  0  0  0  0
 28 29  1  0  0  0  0
 28 30  1  0  0  0  0
 28 31  1  0  0  0  0
 25 32  1  0  0  0  0
 32 33  1  0  0  0  0
 32 34  1  0  0  0  0
 32 35  1  0  0  0  0
 36  8  4  0  0  0  0
 37 36  4  0  0  0  0
 36 38  1  0  0  0  0
 38 39  1  0  0  0  0
 38 40  1  0  0  0  0
 38 41  1  0  0  0  0
  5 37  4  0  0  0  0
 10 15  1  0  0  0  0
 13 20  1  0  0  0  0
 22 27  4  0  0  0  0
  1 42  1  0  0  0  0
  1 43  1  0  0  0  0
  1 44  1  0  0  0  0
  3 45  1  0  0  0  0
  3 46  1  0  0  0  0
  3 47  1  0  0  0  0
  4 48  1  0  0  0  0
  4 49  1  0  0  0  0
  4 50  1  0  0  0  0
  6 51  1  0  0  0  0
  7 52  1  0  0  0  0
 12 53  1  0  0  0  0
 12 54  1  0  0  0  0
 14 55  1  0  0  0  0
 14 56  1  0  0  0  0
 16 57  1  0  0  0  0
 16 58  1  0  0  0  0
 20 59  1  0  0  0  0
 20 60  1  0  0  0  0
 23 61  1  0  0  0  0
 24 62  1  0  0  0  0
 26 63  1  0  0  0  0
 29 64  1  0  0  0  0
 29 65  1  0  0  0  0
 29 66  1  0  0  0  0
 30 67  1  0  0  0  0
 30 68  1  0  0  0  0
 30 69  1  0  0  0  0
 31 70  1  0  0  0  0
 31 71  1  0  0  0  0
 31 72  1  0  0  0  0
 33 73  1  0  0  0  0
 33 74  1  0  0  0  0
 33 75  1  0  0  0  0
 34 76  1  0  0  0  0
 34 77  1  0  0  0  0
 34 78  1  0  0  0  0
 35 79  1  0  0  0  0
 35 80  1  0  0  0  0
 35 81  1  0  0  0  0
 37 82  1  0  0  0  0
 39 83  1  0  0  0  0
 39 84  1  0  0  0  0
 39 85  1  0  0  0  0
 40 86  1  0  0  0  0
 40 87  1  0  0  0  0
 40 88  1  0  0  0  0
 41 89  1  0  0  0  0
 41 90  1  0  0  0  0
 41 91  1  0  0  0  0
M  END
>  <id_input>
2689

>  <InChIKey>
AIBRSVLEQRWAEG-UHFFFAOYSA-N

>  <substance_name>
3,9-bis(2,4-di-tert-butylphenoxy)-2,4,8,10-tetraoxa-3,9-diphosphaspiro[5.5]undecane

>  <casrn>
26741-53-7

>  <Molecular weight>
604.6940307617188

>  <guideline>
OECD Guideline 404 (Acute Dermal Irritation / Corrosion)

>  <species>
rabbit

>  <type_of_coverage>
occlusive

>  <max_duration(hrs)>
4.0

>  <vehicle>
unchanged (no vehicle)

>  <edema/ erythema score>
0.0

>  <max_score>
4.0

>  <reversibility>
0.0

>  <Outcome>
0

>  <StandardizerResult>
Remove Explicit Hydrogens (ID: RemoveExplicitH)
Dearomatize (ID: Dearomatize)
Clear Stereo (ID: ClearStereo)
Wedge Clean (ID: WedgeClean)
Mesomerize (ID: Mesomerize)
Tautomerize (ID: Tautomerize)
Aromatize (ID: Aromatize)
Add Explicit Hydrogens (ID: AddExplicitH)
Neutralize (ID: Neutralize)
Clean 2D (ID: Clean2D)


$$$$

  Mrv1812 02121911042D          

 66 70  0  0  0  0            999 V2000
   -2.4157    0.1863    0.0000 C   0  0  0  0  0  0  0  0  0  0  0  0
   -1.7012   -0.2262    0.0000 C   0  0  0  0  0  0  0  0  0  0  0  0
   -1.7012   -1.0512    0.0000 C   0  0  0  0  0  0  0  0  0  0  0  0
   -0.9867   -1.4637    0.0000 C   0  0  0  0  0  0  0  0  0  0  0  0
   -0.9867   -2.2887    0.0000 C   0  0  0  0  0  0  0  0  0  0  0  0
   -0.2723   -1.0512    0.0000 C   0  0  0  0  0  0  0  0  0  0  0  0
    0.4422   -1.4637    0.0000 N   0  0  0  0  0  0  0  0  0  0  0  0
    0.4422   -2.2887    0.0000 C   0  0  0  0  0  0  0  0  0  0  0  0
   -0.2723   -2.7012    0.0000 C   0  0  0  0  0  0  0  0  0  0  0  0
   -0.2723   -3.5262    0.0000 C   0  0  0  0  0  0  0  0  0  0  0  0
    0.4422   -3.9387    0.0000 C   0  0  0  0  0  0  0  0  0  0  0  0
    0.4422   -4.7637    0.0000 N   0  0  0  0  0  0  0  0  0  0  0  0
   -0.2723   -5.1762    0.0000 C   0  0  0  0  0  0  0  0  0  0  0  0
   -0.9867   -4.7637    0.0000 C   0  0  0  0  0  0  0  0  0  0  0  0
   -0.9867   -3.9387    0.0000 C   0  0  0  0  0  0  0  0  0  0  0  0
   -1.7012   -5.1762    0.0000 C   0  0  0  0  0  0  0  0  0  0  0  0
   -1.7012   -6.0012    0.0000 C   0  0  0  0  0  0  0  0  0  0  0  0
   -2.4157   -6.4137    0.0000 C   0  0  0  0  0  0  0  0  0  0  0  0
   -0.9867   -6.4137    0.0000 C   0  0  0  0  0  0  0  0  0  0  0  0
   -0.2723   -6.0012    0.0000 C   0  0  0  0  0  0  0  0  0  0  0  0
    0.4422   -6.4137    0.0000 C   0  0  0  0  0  0  0  0  0  0  0  0
    1.1567   -3.5262    0.0000 C   0  0  0  0  0  0  0  0  0  0  0  0
    1.8711   -3.9387    0.0000 C   0  0  0  0  0  0  0  0  0  0  0  0
    1.8711   -4.7637    0.0000 O   0  0  0  0  0  0  0  0  0  0  0  0
    2.5856   -3.5262    0.0000 C   0  0  0  0  0  0  0  0  0  0  0  0
    3.3001   -3.9387    0.0000 C   0  0  0  0  0  0  0  0  0  0  0  0
    4.0145   -3.5262    0.0000 C   0  0  0  0  0  0  0  0  0  0  0  0
    4.0145   -2.7012    0.0000 C   0  0  0  0  0  0  0  0  0  0  0  0
    3.3001   -2.2887    0.0000 C   0  0  0  0  0  0  0  0  0  0  0  0
    2.5856   -2.7012    0.0000 C   0  0  0  0  0  0  0  0  0  0  0  0
    1.8711   -2.2887    0.0000 C   0  0  0  0  0  0  0  0  0  0  0  0
    1.8711   -1.4637    0.0000 O   0  0  0  0  0  0  0  0  0  0  0  0
    1.1567   -2.7012    0.0000 C   0  0  0  0  0  0  0  0  0  0  0  0
   -0.2723   -0.2262    0.0000 C   0  0  0  0  0  0  0  0  0  0  0  0
    0.4422    0.1863    0.0000 C   0  0  0  0  0  0  0  0  0  0  0  0
   -0.9867    0.1863    0.0000 C   0  0  0  0  0  0  0  0  0  0  0  0
   -2.0032    0.9008    0.0000 H   0  0  0  0  0  0  0  0  0  0  0  0
   -3.1302    0.5988    0.0000 H   0  0  0  0  0  0  0  0  0  0  0  0
   -2.8282   -0.5282    0.0000 H   0  0  0  0  0  0  0  0  0  0  0  0
   -2.4157   -1.4637    0.0000 H   0  0  0  0  0  0  0  0  0  0  0  0
   -1.7012   -1.8762    0.0000 H   0  0  0  0  0  0  0  0  0  0  0  0
   -1.7012   -2.7012    0.0000 H   0  0  0  0  0  0  0  0  0  0  0  0
   -0.9867   -3.1137    0.0000 H   0  0  0  0  0  0  0  0  0  0  0  0
    1.1567   -1.0512    0.0000 H   0  0  0  0  0  0  0  0  0  0  0  0
    0.4422   -3.1137    0.0000 H   0  0  0  0  0  0  0  0  0  0  0  0
   -0.2723   -4.3512    0.0000 H   0  0  0  0  0  0  0  0  0  0  0  0
    1.1567   -5.1762    0.0000 H   0  0  0  0  0  0  0  0  0  0  0  0
   -1.5701   -3.3553    0.0000 H   0  0  0  0  0  0  0  0  0  0  0  0
   -1.8117   -3.9387    0.0000 H   0  0  0  0  0  0  0  0  0  0  0  0
   -1.5701   -4.5220    0.0000 H   0  0  0  0  0  0  0  0  0  0  0  0
   -2.5222   -5.0947    0.0000 H   0  0  0  0  0  0  0  0  0  0  0  0
   -2.8282   -5.6992    0.0000 H   0  0  0  0  0  0  0  0  0  0  0  0
   -3.1302   -6.8262    0.0000 H   0  0  0  0  0  0  0  0  0  0  0  0
   -2.0032   -7.1282    0.0000 H   0  0  0  0  0  0  0  0  0  0  0  0
   -0.9867   -7.2387    0.0000 H   0  0  0  0  0  0  0  0  0  0  0  0
    0.0297   -7.1282    0.0000 H   0  0  0  0  0  0  0  0  0  0  0  0
    1.1567   -6.8262    0.0000 H   0  0  0  0  0  0  0  0  0  0  0  0
    0.8547   -5.6992    0.0000 H   0  0  0  0  0  0  0  0  0  0  0  0
    3.3001   -4.7637    0.0000 H   0  0  0  0  0  0  0  0  0  0  0  0
    4.7290   -3.9387    0.0000 H   0  0  0  0  0  0  0  0  0  0  0  0
    4.7290   -2.2887    0.0000 H   0  0  0  0  0  0  0  0  0  0  0  0
    3.3001   -1.4637    0.0000 H   0  0  0  0  0  0  0  0  0  0  0  0
    0.8547   -0.5282    0.0000 H   0  0  0  0  0  0  0  0  0  0  0  0
    1.1567    0.5988    0.0000 H   0  0  0  0  0  0  0  0  0  0  0  0
    0.0297    0.9008    0.0000 H   0  0  0  0  0  0  0  0  0  0  0  0
   -0.9867    1.0113    0.0000 H   0  0  0  0  0  0  0  0  0  0  0  0
  1  2  1  0  0  0  0
  3  2  4  0  0  0  0
  4  3  4  0  0  0  0
  4  5  1  0  0  0  0
  6  4  4  0  0  0  0
  6  7  1  0  0  0  0
  7  8  1  0  0  0  0
  9  8  4  0  0  0  0
 10  9  4  0  0  0  0
 11 10  4  0  0  0  0
 11 12  1  0  0  0  0
 12 13  1  0  0  0  0
 14 13  4  0  0  0  0
 14 15  1  0  0  0  0
 16 14  4  0  0  0  0
 17 16  4  0  0  0  0
 17 18  1  0  0  0  0
 19 17  4  0  0  0  0
 20 19  4  0  0  0  0
 20 21  1  0  0  0  0
 22 11  4  0  0  0  0
 22 23  1  0  0  0  0
 23 24  2  0  0  0  0
 23 25  1  0  0  0  0
 26 25  4  0  0  0  0
 27 26  4  0  0  0  0
 28 27  4  0  0  0  0
 29 28  4  0  0  0  0
 30 29  4  0  0  0  0
 30 31  1  0  0  0  0
 31 32  2  0  0  0  0
 31 33  1  0  0  0  0
 34  6  4  0  0  0  0
 34 35  1  0  0  0  0
 36 34  4  0  0  0  0
  2 36  4  0  0  0  0
  8 33  4  0  0  0  0
 13 20  4  0  0  0  0
 33 22  4  0  0  0  0
 25 30  4  0  0  0  0
  1 37  1  0  0  0  0
  1 38  1  0  0  0  0
  1 39  1  0  0  0  0
  3 40  1  0  0  0  0
  5 41  1  0  0  0  0
  5 42  1  0  0  0  0
  5 43  1  0  0  0  0
  7 44  1  0  0  0  0
  9 45  1  0  0  0  0
 10 46  1  0  0  0  0
 12 47  1  0  0  0  0
 15 48  1  0  0  0  0
 15 49  1  0  0  0  0
 15 50  1  0  0  0  0
 16 51  1  0  0  0  0
 18 52  1  0  0  0  0
 18 53  1  0  0  0  0
 18 54  1  0  0  0  0
 19 55  1  0  0  0  0
 21 56  1  0  0  0  0
 21 57  1  0  0  0  0
 21 58  1  0  0  0  0
 26 59  1  0  0  0  0
 27 60  1  0  0  0  0
 28 61  1  0  0  0  0
 29 62  1  0  0  0  0
 35 63  1  0  0  0  0
 35 64  1  0  0  0  0
 35 65  1  0  0  0  0
 36 66  1  0  0  0  0
M  END
>  <id_input>
1803

>  <InChIKey>
DMDRBXCDTZRMHZ-UHFFFAOYSA-N

>  <substance_name>
1,4-bis[(2,4,6-trimethylphenyl)amino]-9,10-dihydroanthracene-9,10-dione

>  <casrn>
116-75-6

>  <Molecular weight>
474.5928039550781

>  <guideline>
OECD Guideline 404 (Acute Dermal Irritation / Corrosion)

>  <species>
rabbit

>  <type_of_coverage>
semiocclusive

>  <max_duration(hrs)>
4.0

>  <vehicle>
water

>  <edema/ erythema score>
0.33

>  <max_score>
4.0

>  <reversibility>
0.0

>  <Outcome>
0

>  <StandardizerResult>
Remove Explicit Hydrogens (ID: RemoveExplicitH)
Dearomatize (ID: Dearomatize)
Clear Stereo (ID: ClearStereo)
Wedge Clean (ID: WedgeClean)
Mesomerize (ID: Mesomerize)
Tautomerize (ID: Tautomerize)
Aromatize (ID: Aromatize)
Add Explicit Hydrogens (ID: AddExplicitH)
Neutralize (ID: Neutralize)
Clean 2D (ID: Clean2D)


$$$$

  Mrv1812 02121911042D          

 32 33  0  0  0  0            999 V2000
    2.0632    1.2476    0.0000 N   0  0  0  0  0  0  0  0  0  0  0  0
    1.3487    1.6601    0.0000 C   0  0  0  0  0  0  0  0  0  0  0  0
    1.3487    2.4851    0.0000 O   0  0  0  0  0  0  0  0  0  0  0  0
    0.6343    1.2476    0.0000 C   0  0  0  0  0  0  0  0  0  0  0  0
   -0.0802    1.6601    0.0000 C   0  0  0  0  0  0  0  0  0  0  0  0
   -0.7947    1.2476    0.0000 C   0  0  0  0  0  0  0  0  0  0  0  0
   -0.7947    0.4226    0.0000 C   0  0  0  0  0  0  0  0  0  0  0  0
   -1.5091    0.0101    0.0000 N   0  0  0  0  0  0  0  0  0  0  0  0
   -2.2236    0.4226    0.0000 C   0  0  0  0  0  0  0  0  0  0  0  0
   -2.2236    1.2476    0.0000 O   0  0  0  0  0  0  0  0  0  0  0  0
   -2.9381    0.0101    0.0000 C   0  0  0  0  0  0  0  0  0  0  0  0
   -3.6526    0.4226    0.0000 C   0  0  0  0  0  0  0  0  0  0  0  0
   -4.3670    0.0101    0.0000 C   0  0  0  0  0  0  0  0  0  0  0  0
   -4.3670   -0.8149    0.0000 C   0  0  0  0  0  0  0  0  0  0  0  0
   -5.0815   -1.2274    0.0000 N   0  0  0  0  0  0  0  0  0  0  0  0
   -3.6526   -1.2274    0.0000 C   0  0  0  0  0  0  0  0  0  0  0  0
   -2.9381   -0.8149    0.0000 C   0  0  0  0  0  0  0  0  0  0  0  0
   -0.0802    0.0101    0.0000 C   0  0  0  0  0  0  0  0  0  0  0  0
    0.6343    0.4226    0.0000 C   0  0  0  0  0  0  0  0  0  0  0  0
    2.0632    0.4226    0.0000 H   0  0  0  0  0  0  0  0  0  0  0  0
    2.7777    1.6601    0.0000 H   0  0  0  0  0  0  0  0  0  0  0  0
   -0.0802    2.4851    0.0000 H   0  0  0  0  0  0  0  0  0  0  0  0
   -1.5091    1.6601    0.0000 H   0  0  0  0  0  0  0  0  0  0  0  0
   -1.5091   -0.8149    0.0000 H   0  0  0  0  0  0  0  0  0  0  0  0
   -3.6526    1.2476    0.0000 H   0  0  0  0  0  0  0  0  0  0  0  0
   -5.0815    0.4226    0.0000 H   0  0  0  0  0  0  0  0  0  0  0  0
   -5.7960   -0.8149    0.0000 H   0  0  0  0  0  0  0  0  0  0  0  0
   -5.0815   -2.0524    0.0000 H   0  0  0  0  0  0  0  0  0  0  0  0
   -3.6526   -2.0524    0.0000 H   0  0  0  0  0  0  0  0  0  0  0  0
   -2.2236   -1.2274    0.0000 H   0  0  0  0  0  0  0  0  0  0  0  0
   -0.0802   -0.8149    0.0000 H   0  0  0  0  0  0  0  0  0  0  0  0
    1.3487    0.0101    0.0000 H   0  0  0  0  0  0  0  0  0  0  0  0
  1  2  1  0  0  0  0
  2  3  2  0  0  0  0
  2  4  1  0  0  0  0
  5  4  4  0  0  0  0
  6  5  4  0  0  0  0
  7  6  4  0  0  0  0
  7  8  1  0  0  0  0
  8  9  1  0  0  0  0
  9 10  2  0  0  0  0
  9 11  1  0  0  0  0
 12 11  4  0  0  0  0
 13 12  4  0  0  0  0
 14 13  4  0  0  0  0
 14 15  1  0  0  0  0
 16 14  4  0  0  0  0
 17 16  4  0  0  0  0
 18  7  4  0  0  0  0
 19 18  4  0  0  0  0
  4 19  4  0  0  0  0
 11 17  4  0  0  0  0
  1 20  1  0  0  0  0
  1 21  1  0  0  0  0
  5 22  1  0  0  0  0
  6 23  1  0  0  0  0
  8 24  1  0  0  0  0
 12 25  1  0  0  0  0
 13 26  1  0  0  0  0
 15 27  1  0  0  0  0
 15 28  1  0  0  0  0
 16 29  1  0  0  0  0
 17 30  1  0  0  0  0
 18 31  1  0  0  0  0
 19 32  1  0  0  0  0
M  END
>  <id_input>
2879

>  <InChIKey>
FSPYMSUDIVFOHY-UHFFFAOYSA-N

>  <substance_name>
4-amino-N-(4-carbamoylphenyl)benzamide

>  <casrn>
74441-06-8

>  <Molecular weight>
255.2719268798828

>  <guideline>
OECD Guideline 404 (Acute Dermal Irritation / Corrosion)

>  <species>
rabbit

>  <type_of_coverage>
semiocclusive

>  <max_duration(hrs)>
4.0

>  <vehicle>
water

>  <edema/ erythema score>
0.0

>  <max_score>
4.0

>  <reversibility>
0.0

>  <Outcome>
0

>  <StandardizerResult>
Remove Explicit Hydrogens (ID: RemoveExplicitH)
Dearomatize (ID: Dearomatize)
Clear Stereo (ID: ClearStereo)
Wedge Clean (ID: WedgeClean)
Mesomerize (ID: Mesomerize)
Tautomerize (ID: Tautomerize)
Aromatize (ID: Aromatize)
Add Explicit Hydrogens (ID: AddExplicitH)
Neutralize (ID: Neutralize)
Clean 2D (ID: Clean2D)


$$$$

  Mrv1812 02121911042D          

 36 39  0  0  0  0            999 V2000
   -1.1258   -5.1991    0.0000 O   0  0  0  0  0  0  0  0  0  0  0  0
   -0.8708   -4.4144    0.0000 C   0  0  0  0  0  0  0  0  0  0  0  0
   -0.0639   -4.2429    0.0000 N   0  0  0  0  0  0  0  0  0  0  0  0
    0.1911   -3.4583    0.0000 C   0  0  0  0  0  0  0  0  0  0  0  0
    0.9980   -3.2868    0.0000 O   0  0  0  0  0  0  0  0  0  0  0  0
   -0.3610   -2.8452    0.0000 C   0  0  0  0  0  0  0  0  0  0  0  0
   -1.1679   -3.0167    0.0000 C   0  0  0  0  0  0  0  0  0  0  0  0
   -1.7200   -2.4036    0.0000 O   0  0  0  0  0  0  0  0  0  0  0  0
   -1.4229   -3.8013    0.0000 N   0  0  0  0  0  0  0  0  0  0  0  0
   -0.1060   -2.0606    0.0000 C   0  0  0  0  0  0  0  0  0  0  0  0
   -0.5910   -1.3931    0.0000 N   0  0  0  0  0  0  0  0  0  0  0  0
   -0.1060   -0.7257    0.0000 C   0  0  0  0  0  0  0  0  0  0  0  0
    0.6786   -0.9806    0.0000 C   0  0  0  0  0  0  0  0  0  0  0  0
    1.3931   -0.5681    0.0000 C   0  0  0  0  0  0  0  0  0  0  0  0
    2.1075   -0.9806    0.0000 C   0  0  0  0  0  0  0  0  0  0  0  0
    2.1075   -1.8056    0.0000 C   0  0  0  0  0  0  0  0  0  0  0  0
    1.3931   -2.2181    0.0000 C   0  0  0  0  0  0  0  0  0  0  0  0
    0.6786   -1.8056    0.0000 C   0  0  0  0  0  0  0  0  0  0  0  0
   -0.3610    0.0589    0.0000 C   0  0  0  0  0  0  0  0  0  0  0  0
    0.1911    0.6720    0.0000 C   0  0  0  0  0  0  0  0  0  0  0  0
    0.9980    0.5005    0.0000 O   0  0  0  0  0  0  0  0  0  0  0  0
   -0.0639    1.4566    0.0000 N   0  0  0  0  0  0  0  0  0  0  0  0
   -0.8708    1.6282    0.0000 C   0  0  0  0  0  0  0  0  0  0  0  0
   -1.1258    2.4128    0.0000 O   0  0  0  0  0  0  0  0  0  0  0  0
   -1.4229    1.0151    0.0000 N   0  0  0  0  0  0  0  0  0  0  0  0
   -1.1679    0.2305    0.0000 C   0  0  0  0  0  0  0  0  0  0  0  0
   -1.7200   -0.3826    0.0000 O   0  0  0  0  0  0  0  0  0  0  0  0
    0.4882   -4.8560    0.0000 H   0  0  0  0  0  0  0  0  0  0  0  0
   -2.2299   -3.9729    0.0000 H   0  0  0  0  0  0  0  0  0  0  0  0
   -1.4160   -1.3931    0.0000 H   0  0  0  0  0  0  0  0  0  0  0  0
    1.3931    0.2569    0.0000 H   0  0  0  0  0  0  0  0  0  0  0  0
    2.8220   -0.5681    0.0000 H   0  0  0  0  0  0  0  0  0  0  0  0
    2.8220   -2.2181    0.0000 H   0  0  0  0  0  0  0  0  0  0  0  0
    1.3931   -3.0431    0.0000 H   0  0  0  0  0  0  0  0  0  0  0  0
    0.4882    2.0697    0.0000 H   0  0  0  0  0  0  0  0  0  0  0  0
   -2.2299    1.1866    0.0000 H   0  0  0  0  0  0  0  0  0  0  0  0
  1  2  2  0  0  0  0
  3  2  1  0  0  0  0
  4  3  1  0  0  0  0
  4  5  2  0  0  0  0
  6  4  1  4  0  0  0
  7  6  1  0  0  0  0
  7  8  2  0  0  0  0
  9  7  1  0  0  0  0
  6 10  2  0  0  0  0
 11 10  1  0  0  0  0
 12 11  1  4  0  0  0
 13 12  1  0  0  0  0
 13 14  4  0  0  0  0
 14 15  4  0  0  0  0
 15 16  4  0  0  0  0
 16 17  4  0  0  0  0
 17 18  4  0  0  0  0
 12 19  2  0  0  0  0
 20 19  1  0  0  0  0
 20 21  2  0  0  0  0
 22 20  1  0  0  0  0
 23 22  1  0  0  0  0
 23 24  2  0  0  0  0
 25 23  1  0  0  0  0
 26 25  1  0  0  0  0
 26 27  2  0  0  0  0
  2  9  1  0  0  0  0
 10 18  1  0  0  0  0
 18 13  4  0  0  0  0
 19 26  1  0  0  0  0
  3 28  1  0  0  0  0
  9 29  1  0  0  0  0
 11 30  1  0  0  0  0
 14 31  1  0  0  0  0
 15 32  1  0  0  0  0
 16 33  1  0  0  0  0
 17 34  1  0  0  0  0
 22 35  1  0  0  0  0
 25 36  1  0  0  0  0
M  END
>  <id_input>
2954

>  <InChIKey>
JSBMGPVJAADXIZ-UHFFFAOYSA-N

>  <substance_name>
5-[3-(2,4,6-trioxo-1,3-diazinan-5-ylidene)-2,3-dihydro-1H-isoindol-1-ylidene]-1,3-diazinane-2,4,6-trione

>  <casrn>
36888-99-0

>  <Molecular weight>
367.2725524902344

>  <guideline>
OECD Guideline 404 (Acute Dermal Irritation / Corrosion)

>  <species>
rabbit

>  <type_of_coverage>
semiocclusive

>  <max_duration(hrs)>
4.0

>  <vehicle>
water

>  <edema/ erythema score>
0.0

>  <max_score>
0.0

>  <reversibility>
0.0

>  <Outcome>
0

>  <StandardizerResult>
Remove Explicit Hydrogens (ID: RemoveExplicitH)
Dearomatize (ID: Dearomatize)
Clear Stereo (ID: ClearStereo)
Wedge Clean (ID: WedgeClean)
Mesomerize (ID: Mesomerize)
Tautomerize (ID: Tautomerize)
Aromatize (ID: Aromatize)
Add Explicit Hydrogens (ID: AddExplicitH)
Neutralize (ID: Neutralize)
Clean 2D (ID: Clean2D)


$$$$

  Mrv1812 02121911042D          

 26 27  0  0  0  0            999 V2000
    1.0301   -1.0327    0.0000 C   0  0  0  0  0  0  0  0  0  0  0  0
    0.3156   -0.6202    0.0000 C   0  0  0  0  0  0  0  0  0  0  0  0
   -0.3989   -1.0327    0.0000 C   0  0  0  0  0  0  0  0  0  0  0  0
   -0.3989   -1.8577    0.0000 C   0  0  0  0  0  0  0  0  0  0  0  0
    0.3156   -2.2702    0.0000 C   0  0  0  0  0  0  0  0  0  0  0  0
    1.0301   -1.8577    0.0000 C   0  0  0  0  0  0  0  0  0  0  0  0
    1.7446   -2.2702    0.0000 N   0  0  0  0  0  0  0  0  0  0  0  0
   -1.1133   -0.6202    0.0000 N   0  0  0  0  0  0  0  0  0  0  0  0
   -1.1133    0.2048    0.0000 C   0  0  0  0  0  0  0  0  0  0  0  0
   -1.8278    0.6173    0.0000 C   0  0  0  0  0  0  0  0  0  0  0  0
   -2.5423    0.2048    0.0000 O   0  0  0  0  0  0  0  0  0  0  0  0
   -2.5423   -0.6202    0.0000 C   0  0  0  0  0  0  0  0  0  0  0  0
   -1.8278   -1.0327    0.0000 C   0  0  0  0  0  0  0  0  0  0  0  0
   -1.8278   -1.8577    0.0000 O   0  0  0  0  0  0  0  0  0  0  0  0
    1.7446   -0.6202    0.0000 H   0  0  0  0  0  0  0  0  0  0  0  0
    0.3156    0.2048    0.0000 H   0  0  0  0  0  0  0  0  0  0  0  0
   -1.1133   -2.2702    0.0000 H   0  0  0  0  0  0  0  0  0  0  0  0
    0.3156   -3.0952    0.0000 H   0  0  0  0  0  0  0  0  0  0  0  0
    1.7446   -3.0952    0.0000 H   0  0  0  0  0  0  0  0  0  0  0  0
    2.4590   -1.8577    0.0000 H   0  0  0  0  0  0  0  0  0  0  0  0
   -0.2897    0.2528    0.0000 H   0  0  0  0  0  0  0  0  0  0  0  0
   -0.6600    0.8941    0.0000 H   0  0  0  0  0  0  0  0  0  0  0  0
   -1.4575    1.3546    0.0000 H   0  0  0  0  0  0  0  0  0  0  0  0
   -2.1981    1.3546    0.0000 H   0  0  0  0  0  0  0  0  0  0  0  0
   -3.3659   -0.6681    0.0000 H   0  0  0  0  0  0  0  0  0  0  0  0
   -2.9956   -1.3095    0.0000 H   0  0  0  0  0  0  0  0  0  0  0  0
  2  1  4  0  0  0  0
  3  2  4  0  0  0  0
  4  3  4  0  0  0  0
  5  4  4  0  0  0  0
  6  5  4  0  0  0  0
  6  7  1  0  0  0  0
  3  8  1  0  0  0  0
  9  8  1  0  0  0  0
 10  9  1  0  0  0  0
 11 10  1  0  0  0  0
 12 11  1  0  0  0  0
 13 12  1  0  0  0  0
 13 14  2  0  0  0  0
  1  6  4  0  0  0  0
  8 13  1  0  0  0  0
  1 15  1  0  0  0  0
  2 16  1  0  0  0  0
  4 17  1  0  0  0  0
  5 18  1  0  0  0  0
  7 19  1  0  0  0  0
  7 20  1  0  0  0  0
  9 21  1  0  0  0  0
  9 22  1  0  0  0  0
 10 23  1  0  0  0  0
 10 24  1  0  0  0  0
 12 25  1  0  0  0  0
 12 26  1  0  0  0  0
M  END
>  <id_input>
319

>  <InChIKey>
MHCRLDZZHOVFEE-UHFFFAOYSA-N

>  <substance_name>
-

>  <casrn>
438056-69-0

>  <Molecular weight>
192.2144775390625

>  <guideline>
OECD Guideline 404 (Acute Dermal Irritation / Corrosion)

>  <species>
rabbit

>  <type_of_coverage>
semiocclusive

>  <max_duration(hrs)>
4.0

>  <vehicle>
water

>  <edema/ erythema score>
0.1

>  <max_score>
1.0

>  <reversibility>
0.0

>  <Outcome>
0

>  <StandardizerResult>
Remove Explicit Hydrogens (ID: RemoveExplicitH)
Dearomatize (ID: Dearomatize)
Clear Stereo (ID: ClearStereo)
Wedge Clean (ID: WedgeClean)
Mesomerize (ID: Mesomerize)
Tautomerize (ID: Tautomerize)
Aromatize (ID: Aromatize)
Add Explicit Hydrogens (ID: AddExplicitH)
Neutralize (ID: Neutralize)
Clean 2D (ID: Clean2D)


$$$$

  Mrv1812 02121911042D          

 53 56  0  0  0  0            999 V2000
    3.0032    0.5394    0.0000 C   0  0  0  0  0  0  0  0  0  0  0  0
    2.6433   -0.2029    0.0000 C   0  0  0  0  0  0  0  0  0  0  0  0
    2.1115    0.4278    0.0000 C   0  0  0  0  0  0  0  0  0  0  0  0
    1.2994    0.2826    0.0000 C   0  0  0  0  0  0  0  0  0  0  0  0
    1.0191   -0.4934    0.0000 C   0  0  0  0  0  0  0  0  0  0  0  0
    1.5509   -1.1241    0.0000 C   0  0  0  0  0  0  0  0  0  0  0  0
    2.3630   -0.9789    0.0000 C   0  0  0  0  0  0  0  0  0  0  0  0
    3.0143   -1.4852    0.0000 C   0  0  0  0  0  0  0  0  0  0  0  0
    3.6972   -1.0222    0.0000 C   0  0  0  0  0  0  0  0  0  0  0  0
    3.4679   -0.2297    0.0000 C   0  0  0  0  0  0  0  0  0  0  0  0
    3.9742    0.4216    0.0000 O   0  0  0  0  0  0  0  0  0  0  0  0
    1.2706   -1.9000    0.0000 C   0  0  0  0  0  0  0  0  0  0  0  0
    0.4585   -2.0452    0.0000 C   0  0  0  0  0  0  0  0  0  0  0  0
   -0.0734   -1.4145    0.0000 C   0  0  0  0  0  0  0  0  0  0  0  0
    0.2069   -0.6386    0.0000 C   0  0  0  0  0  0  0  0  0  0  0  0
   -0.3249   -0.0079    0.0000 C   0  0  0  0  0  0  0  0  0  0  0  0
   -1.1370   -0.1531    0.0000 C   0  0  0  0  0  0  0  0  0  0  0  0
   -1.4173   -0.9290    0.0000 C   0  0  0  0  0  0  0  0  0  0  0  0
   -0.8855   -1.5597    0.0000 C   0  0  0  0  0  0  0  0  0  0  0  0
   -2.2025   -0.6760    0.0000 O   0  0  0  0  0  0  0  0  0  0  0  0
   -2.8143   -1.2295    0.0000 C   0  0  0  0  0  0  0  0  0  0  0  0
   -2.0662   -1.4385    0.0000 O   0  0  0  0  0  0  0  0  0  0  0  0
   -1.9494   -2.2552    0.0000 C   0  0  0  0  0  0  0  0  0  0  0  0
    3.8273    0.5774    0.0000 H   0  0  0  0  0  0  0  0  0  0  0  0
    3.3630    1.2818    0.0000 H   0  0  0  0  0  0  0  0  0  0  0  0
    2.5225    1.2099    0.0000 H   0  0  0  0  0  0  0  0  0  0  0  0
    1.6241    1.0934    0.0000 H   0  0  0  0  0  0  0  0  0  0  0  0
    1.8312   -0.3482    0.0000 H   0  0  0  0  0  0  0  0  0  0  0  0
    0.6773    0.8245    0.0000 H   0  0  0  0  0  0  0  0  0  0  0  0
    0.4744    0.2916    0.0000 H   0  0  0  0  0  0  0  0  0  0  0  0
    0.7388   -1.2693    0.0000 H   0  0  0  0  0  0  0  0  0  0  0  0
    2.0827   -1.7548    0.0000 H   0  0  0  0  0  0  0  0  0  0  0  0
    3.1555   -0.7495    0.0000 H   0  0  0  0  0  0  0  0  0  0  0  0
    3.0595   -2.3090    0.0000 H   0  0  0  0  0  0  0  0  0  0  0  0
    3.6191   -2.0464    0.0000 H   0  0  0  0  0  0  0  0  0  0  0  0
    4.2507   -1.6340    0.0000 H   0  0  0  0  0  0  0  0  0  0  0  0
    4.5139   -0.9054    0.0000 H   0  0  0  0  0  0  0  0  0  0  0  0
    1.1293   -2.7128    0.0000 H   0  0  0  0  0  0  0  0  0  0  0  0
    1.6848   -2.6135    0.0000 H   0  0  0  0  0  0  0  0  0  0  0  0
   -0.3060   -2.3554    0.0000 H   0  0  0  0  0  0  0  0  0  0  0  0
    0.0864   -2.7816    0.0000 H   0  0  0  0  0  0  0  0  0  0  0  0
   -0.5431    0.7877    0.0000 H   0  0  0  0  0  0  0  0  0  0  0  0
   -0.6052   -0.7838    0.0000 H   0  0  0  0  0  0  0  0  0  0  0  0
   -1.3292    0.6492    0.0000 H   0  0  0  0  0  0  0  0  0  0  0  0
   -1.8953    0.1719    0.0000 H   0  0  0  0  0  0  0  0  0  0  0  0
   -1.4842   -2.1273    0.0000 H   0  0  0  0  0  0  0  0  0  0  0  0
   -0.7877   -2.3789    0.0000 H   0  0  0  0  0  0  0  0  0  0  0  0
   -3.1978   -0.4990    0.0000 H   0  0  0  0  0  0  0  0  0  0  0  0
   -3.6173   -1.4188    0.0000 H   0  0  0  0  0  0  0  0  0  0  0  0
   -2.8312   -2.0543    0.0000 H   0  0  0  0  0  0  0  0  0  0  0  0
   -2.5886   -2.7768    0.0000 H   0  0  0  0  0  0  0  0  0  0  0  0
   -1.9311   -3.0800    0.0000 H   0  0  0  0  0  0  0  0  0  0  0  0
   -1.2878   -2.7480    0.0000 H   0  0  0  0  0  0  0  0  0  0  0  0
  1  2  1  0  0  0  0
  3  2  1  0  0  0  0
  4  3  1  0  0  0  0
  5  4  1  0  0  0  0
  5  6  1  0  0  0  0
  7  6  1  0  0  0  0
  8  7  1  0  0  0  0
  9  8  1  0  0  0  0
 10  9  1  0  0  0  0
 10 11  2  0  0  0  0
  6 12  1  0  0  0  0
 12 13  1  0  0  0  0
 13 14  1  0  0  0  0
 15 14  2  0  0  0  0
 16 15  1  0  0  0  0
 17 16  1  0  0  0  0
 18 17  1  0  0  0  0
 19 18  1  0  0  0  0
 18 20  1  0  0  0  0
 20 21  1  0  0  0  0
 18 22  1  0  0  0  0
 22 23  1  0  0  0  0
  7  2  1  0  0  0  0
  2 10  1  0  0  0  0
 15  5  1  0  0  0  0
 14 19  1  0  0  0  0
  1 24  1  0  0  0  0
  1 25  1  0  0  0  0
  1 26  1  0  0  0  0
  3 27  1  0  0  0  0
  3 28  1  0  0  0  0
  4 29  1  0  0  0  0
  4 30  1  0  0  0  0
  5 31  1  0  0  0  0
  6 32  1  0  0  0  0
  7 33  1  0  0  0  0
  8 34  1  0  0  0  0
  8 35  1  0  0  0  0
  9 36  1  0  0  0  0
  9 37  1  0  0  0  0
 12 38  1  0  0  0  0
 12 39  1  0  0  0  0
 13 40  1  0  0  0  0
 13 41  1  0  0  0  0
 16 42  1  0  0  0  0
 16 43  1  0  0  0  0
 17 44  1  0  0  0  0
 17 45  1  0  0  0  0
 19 46  1  0  0  0  0
 19 47  1  0  0  0  0
 21 48  1  0  0  0  0
 21 49  1  0  0  0  0
 21 50  1  0  0  0  0
 23 51  1  0  0  0  0
 23 52  1  0  0  0  0
 23 53  1  0  0  0  0
M  END
>  <id_input>
1339

>  <InChIKey>
RHMXJSWKQJYEOA-UHFFFAOYSA-N

>  <substance_name>
-

>  <casrn>
19257-34-2

>  <Molecular weight>
318.4504089355469

>  <guideline>
OECD Guideline 404 (Acute Dermal Irritation / Corrosion)

>  <species>
rabbit

>  <type_of_coverage>
semiocclusive

>  <max_duration(hrs)>
4.0

>  <vehicle>
physiological saline

>  <edema/ erythema score>
0.0

>  <reversibility>
0.0

>  <Outcome>
0

>  <StandardizerResult>
Remove Explicit Hydrogens (ID: RemoveExplicitH)
Clear Stereo (ID: ClearStereo)
Wedge Clean (ID: WedgeClean)
Mesomerize (ID: Mesomerize)
Tautomerize (ID: Tautomerize)
Add Explicit Hydrogens (ID: AddExplicitH)
Neutralize (ID: Neutralize)
Clean 2D (ID: Clean2D)


$$$$

  Mrv1812 02121911042D          

 42 46  0  0  0  0            999 V2000
   -6.7619    2.2540    0.0000 C   0  0  0  0  0  0  0  0  0  0  0  0
   -6.0474    1.8415    0.0000 C   0  0  0  0  0  0  0  0  0  0  0  0
   -6.0474    1.0165    0.0000 C   0  0  0  0  0  0  0  0  0  0  0  0
   -5.3329    0.6040    0.0000 C   0  0  0  0  0  0  0  0  0  0  0  0
   -4.6185    1.0165    0.0000 C   0  0  0  0  0  0  0  0  0  0  0  0
   -3.9040    0.6040    0.0000 N   0  0  0  0  0  0  0  0  0  0  0  0
   -3.1895    1.0165    0.0000 C   0  0  0  0  0  0  0  0  0  0  0  0
   -2.4750    0.6040    0.0000 C   0  0  0  0  0  0  0  0  0  0  0  0
   -1.7606    1.0165    0.0000 C   0  0  0  0  0  0  0  0  0  0  0  0
   -1.0461    0.6040    0.0000 C   0  0  0  0  0  0  0  0  0  0  0  0
   -1.0461   -0.2210    0.0000 O   0  0  0  0  0  0  0  0  0  0  0  0
   -0.3316    1.0165    0.0000 C   0  0  0  0  0  0  0  0  0  0  0  0
    0.3828    0.6040    0.0000 C   0  0  0  0  0  0  0  0  0  0  0  0
    1.0973    1.0165    0.0000 C   0  0  0  0  0  0  0  0  0  0  0  0
    1.8118    0.6040    0.0000 C   0  0  0  0  0  0  0  0  0  0  0  0
    1.0973    1.8415    0.0000 C   0  0  0  0  0  0  0  0  0  0  0  0
    0.3828    2.2540    0.0000 C   0  0  0  0  0  0  0  0  0  0  0  0
   -0.3316    1.8415    0.0000 C   0  0  0  0  0  0  0  0  0  0  0  0
   -1.0461    2.2540    0.0000 N   0  0  0  0  0  0  0  0  0  0  0  0
   -1.7606    1.8415    0.0000 C   0  0  0  0  0  0  0  0  0  0  0  0
   -2.4750    2.2540    0.0000 C   0  0  0  0  0  0  0  0  0  0  0  0
   -3.1895    1.8415    0.0000 C   0  0  0  0  0  0  0  0  0  0  0  0
   -3.9040    2.2540    0.0000 C   0  0  0  0  0  0  0  0  0  0  0  0
   -3.9040    3.0790    0.0000 O   0  0  0  0  0  0  0  0  0  0  0  0
   -4.6185    1.8415    0.0000 C   0  0  0  0  0  0  0  0  0  0  0  0
   -5.3329    2.2540    0.0000 C   0  0  0  0  0  0  0  0  0  0  0  0
   -6.3494    2.9685    0.0000 H   0  0  0  0  0  0  0  0  0  0  0  0
   -7.4763    2.6665    0.0000 H   0  0  0  0  0  0  0  0  0  0  0  0
   -7.1744    1.5395    0.0000 H   0  0  0  0  0  0  0  0  0  0  0  0
   -6.7619    0.6040    0.0000 H   0  0  0  0  0  0  0  0  0  0  0  0
   -5.3329   -0.2210    0.0000 H   0  0  0  0  0  0  0  0  0  0  0  0
   -3.9040   -0.2210    0.0000 H   0  0  0  0  0  0  0  0  0  0  0  0
   -2.4750   -0.2210    0.0000 H   0  0  0  0  0  0  0  0  0  0  0  0
    0.3828   -0.2210    0.0000 H   0  0  0  0  0  0  0  0  0  0  0  0
    1.3993   -0.1105    0.0000 H   0  0  0  0  0  0  0  0  0  0  0  0
    2.5263    0.1915    0.0000 H   0  0  0  0  0  0  0  0  0  0  0  0
    2.2243    1.3185    0.0000 H   0  0  0  0  0  0  0  0  0  0  0  0
    1.8118    2.2540    0.0000 H   0  0  0  0  0  0  0  0  0  0  0  0
    0.3828    3.0790    0.0000 H   0  0  0  0  0  0  0  0  0  0  0  0
   -1.0461    3.0790    0.0000 H   0  0  0  0  0  0  0  0  0  0  0  0
   -2.4750    3.0790    0.0000 H   0  0  0  0  0  0  0  0  0  0  0  0
   -5.3329    3.0790    0.0000 H   0  0  0  0  0  0  0  0  0  0  0  0
  1  2  1  0  0  0  0
  3  2  4  0  0  0  0
  4  3  4  0  0  0  0
  5  4  4  0  0  0  0
  5  6  1  0  0  0  0
  6  7  1  0  0  0  0
  8  7  4  0  0  0  0
  9  8  4  0  0  0  0
  9 10  1  0  0  0  0
 10 11  2  0  0  0  0
 10 12  1  0  0  0  0
 13 12  4  0  0  0  0
 14 13  4  0  0  0  0
 14 15  1  0  0  0  0
 16 14  4  0  0  0  0
 17 16  4  0  0  0  0
 18 17  4  0  0  0  0
 18 19  1  0  0  0  0
 19 20  1  0  0  0  0
 21 20  4  0  0  0  0
 22 21  4  0  0  0  0
 22 23  1  0  0  0  0
 23 24  2  0  0  0  0
 23 25  1  0  0  0  0
 26 25  4  0  0  0  0
  2 26  4  0  0  0  0
 25  5  4  0  0  0  0
  7 22  4  0  0  0  0
 20  9  4  0  0  0  0
 12 18  4  0  0  0  0
  1 27  1  0  0  0  0
  1 28  1  0  0  0  0
  1 29  1  0  0  0  0
  3 30  1  0  0  0  0
  4 31  1  0  0  0  0
  6 32  1  0  0  0  0
  8 33  1  0  0  0  0
 13 34  1  0  0  0  0
 15 35  1  0  0  0  0
 15 36  1  0  0  0  0
 15 37  1  0  0  0  0
 16 38  1  0  0  0  0
 17 39  1  0  0  0  0
 19 40  1  0  0  0  0
 21 41  1  0  0  0  0
 26 42  1  0  0  0  0
M  END
>  <id_input>
2168, 2169, 2170, 2171

>  <InChIKey>
TXWSZJSDZKWQAU-UHFFFAOYSA-N

>  <substance_name>
2,9-dimethyl-5,7,12,14-tetrahydro-5,12-diazapentacene-7,14-dione

>  <casrn>
980-26-7

>  <Molecular weight>
340.3746337890625

>  <guideline>
OECD Guideline 404 (Acute Dermal Irritation / Corrosion)

>  <species>
rabbit

>  <type_of_coverage>
semiocclusive

>  <max_duration(hrs)>
4.0

>  <vehicle>
water

>  <edema/ erythema score>
0.0275

>  <max_score>
4.0

>  <reversibility>
0.0

>  <Outcome>
0

>  <StandardizerResult>
Remove Explicit Hydrogens (ID: RemoveExplicitH)
Dearomatize (ID: Dearomatize)
Clear Stereo (ID: ClearStereo)
Wedge Clean (ID: WedgeClean)
Mesomerize (ID: Mesomerize)
Tautomerize (ID: Tautomerize)
Aromatize (ID: Aromatize)
Add Explicit Hydrogens (ID: AddExplicitH)
Neutralize (ID: Neutralize)
Clean 2D (ID: Clean2D)


$$$$

  Mrv1812 02121911042D          

 29 30  0  0  0  0            999 V2000
    1.9289    2.8011    0.0000 C   0  0  0  0  0  0  0  0  0  0  0  0
    1.2144    2.3886    0.0000 C   0  0  0  0  0  0  0  0  0  0  0  0
    0.4999    2.8011    0.0000 O   0  0  0  0  0  0  0  0  0  0  0  0
    1.2144    1.5636    0.0000 N   0  0  0  0  0  0  0  0  0  0  0  0
    0.4999    1.1511    0.0000 C   0  0  0  0  0  0  0  0  0  0  0  0
   -0.2145    1.5636    0.0000 C   0  0  0  0  0  0  0  0  0  0  0  0
   -0.9290    1.1511    0.0000 C   0  0  0  0  0  0  0  0  0  0  0  0
   -0.9290    0.3261    0.0000 C   0  0  0  0  0  0  0  0  0  0  0  0
   -0.2145   -0.0864    0.0000 C   0  0  0  0  0  0  0  0  0  0  0  0
    0.4999    0.3261    0.0000 C   0  0  0  0  0  0  0  0  0  0  0  0
    1.2144   -0.0864    0.0000 C   0  0  0  0  0  0  0  0  0  0  0  0
    1.2144   -0.9114    0.0000 C   0  0  0  0  0  0  0  0  0  0  0  0
    1.9289   -1.3239    0.0000 C   0  0  0  0  0  0  0  0  0  0  0  0
    2.6433   -0.9114    0.0000 C   0  0  0  0  0  0  0  0  0  0  0  0
    2.6433   -0.0864    0.0000 C   0  0  0  0  0  0  0  0  0  0  0  0
    1.9289    0.3261    0.0000 C   0  0  0  0  0  0  0  0  0  0  0  0
    3.3578    0.3261    0.0000 Cl  0  0  0  0  0  0  0  0  0  0  0  0
    3.3578   -1.3239    0.0000 Cl  0  0  0  0  0  0  0  0  0  0  0  0
   -1.6435   -0.0864    0.0000 F   0  0  0  0  0  0  0  0  0  0  0  0
    2.3414    2.0866    0.0000 H   0  0  0  0  0  0  0  0  0  0  0  0
    2.6433    3.2136    0.0000 H   0  0  0  0  0  0  0  0  0  0  0  0
    1.5164    3.5156    0.0000 H   0  0  0  0  0  0  0  0  0  0  0  0
    1.9289    1.1511    0.0000 H   0  0  0  0  0  0  0  0  0  0  0  0
   -0.2145    2.3886    0.0000 H   0  0  0  0  0  0  0  0  0  0  0  0
   -1.6435    1.5636    0.0000 H   0  0  0  0  0  0  0  0  0  0  0  0
   -0.2145   -0.9114    0.0000 H   0  0  0  0  0  0  0  0  0  0  0  0
    0.4999   -1.3239    0.0000 H   0  0  0  0  0  0  0  0  0  0  0  0
    1.9289   -2.1489    0.0000 H   0  0  0  0  0  0  0  0  0  0  0  0
    2.6433    0.7386    0.0000 H   0  0  0  0  0  0  0  0  0  0  0  0
  1  2  1  0  0  0  0
  2  3  2  0  0  0  0
  2  4  1  0  0  0  0
  4  5  1  0  0  0  0
  6  5  4  0  0  0  0
  7  6  4  0  0  0  0
  8  7  4  0  0  0  0
  9  8  4  0  0  0  0
 10  9  4  0  0  0  0
 10 11  1  0  0  0  0
 12 11  4  0  0  0  0
 13 12  4  0  0  0  0
 14 13  4  0  0  0  0
 15 14  4  0  0  0  0
 16 15  4  0  0  0  0
 15 17  1  0  0  0  0
 14 18  1  0  0  0  0
  8 19  1  0  0  0  0
  5 10  4  0  0  0  0
 11 16  4  0  0  0  0
  1 20  1  0  0  0  0
  1 21  1  0  0  0  0
  1 22  1  0  0  0  0
  4 23  1  0  0  0  0
  6 24  1  0  0  0  0
  7 25  1  0  0  0  0
  9 26  1  0  0  0  0
 12 27  1  0  0  0  0
 13 28  1  0  0  0  0
 16 29  1  0  0  0  0
M  END
>  <id_input>
885

>  <InChIKey>
AXJVTIXMCNXNFH-UHFFFAOYSA-N

>  <substance_name>
-

>  <casrn>
877179-03-8

>  <Molecular weight>
298.13970947265625

>  <guideline>
EU Method B.4 (Acute Toxicity: Dermal Irritation / Corrosion)

>  <species>
rabbit

>  <type_of_coverage>
semiocclusive

>  <max_duration(hrs)>
4.0

>  <vehicle>
unchanged (no vehicle)

>  <edema/ erythema score>
0.0

>  <max_score>
0.0

>  <reversibility>
0.0

>  <Outcome>
0

>  <StandardizerResult>
Remove Explicit Hydrogens (ID: RemoveExplicitH)
Dearomatize (ID: Dearomatize)
Clear Stereo (ID: ClearStereo)
Wedge Clean (ID: WedgeClean)
Mesomerize (ID: Mesomerize)
Tautomerize (ID: Tautomerize)
Aromatize (ID: Aromatize)
Add Explicit Hydrogens (ID: AddExplicitH)
Neutralize (ID: Neutralize)
Clean 2D (ID: Clean2D)


$$$$

  Mrv1812 02121911042D          

 32 32  0  0  0  0            999 V2000
    2.7754    0.2779    0.0000 C   0  0  0  0  0  0  0  0  0  0  0  0
    2.0609    0.6904    0.0000 C   0  0  0  0  0  0  0  0  0  0  0  0
    2.4734    1.4048    0.0000 C   0  0  0  0  0  0  0  0  0  0  0  0
    1.6484   -0.0241    0.0000 O   0  0  0  0  0  0  0  0  0  0  0  0
    1.3465    1.1029    0.0000 C   0  0  0  0  0  0  0  0  0  0  0  0
    1.3465    1.9279    0.0000 O   0  0  0  0  0  0  0  0  0  0  0  0
    0.6320    0.6904    0.0000 C   0  0  0  0  0  0  0  0  0  0  0  0
   -0.0825    1.1029    0.0000 C   0  0  0  0  0  0  0  0  0  0  0  0
   -0.7969    0.6904    0.0000 C   0  0  0  0  0  0  0  0  0  0  0  0
   -0.7969   -0.1346    0.0000 C   0  0  0  0  0  0  0  0  0  0  0  0
   -1.5114   -0.5471    0.0000 O   0  0  0  0  0  0  0  0  0  0  0  0
   -1.5114   -1.3721    0.0000 C   0  0  0  0  0  0  0  0  0  0  0  0
   -2.2259   -1.7846    0.0000 C   0  0  0  0  0  0  0  0  0  0  0  0
   -2.2259   -2.6096    0.0000 O   0  0  0  0  0  0  0  0  0  0  0  0
   -0.0825   -0.5471    0.0000 C   0  0  0  0  0  0  0  0  0  0  0  0
    0.6320   -0.1346    0.0000 C   0  0  0  0  0  0  0  0  0  0  0  0
    2.3629   -0.4366    0.0000 H   0  0  0  0  0  0  0  0  0  0  0  0
    3.4899   -0.1346    0.0000 H   0  0  0  0  0  0  0  0  0  0  0  0
    3.1879    0.9923    0.0000 H   0  0  0  0  0  0  0  0  0  0  0  0
    3.1280    1.9071    0.0000 H   0  0  0  0  0  0  0  0  0  0  0  0
    2.2599    2.2017    0.0000 H   0  0  0  0  0  0  0  0  0  0  0  0
    1.6555    1.5125    0.0000 H   0  0  0  0  0  0  0  0  0  0  0  0
    0.8516   -0.2376    0.0000 H   0  0  0  0  0  0  0  0  0  0  0  0
   -0.0825    1.9279    0.0000 H   0  0  0  0  0  0  0  0  0  0  0  0
   -1.5114    1.1029    0.0000 H   0  0  0  0  0  0  0  0  0  0  0  0
   -1.0581   -2.0614    0.0000 H   0  0  0  0  0  0  0  0  0  0  0  0
   -0.6878   -1.4201    0.0000 H   0  0  0  0  0  0  0  0  0  0  0  0
   -2.6792   -1.0954    0.0000 H   0  0  0  0  0  0  0  0  0  0  0  0
   -3.0495   -1.7367    0.0000 H   0  0  0  0  0  0  0  0  0  0  0  0
   -2.9404   -3.0221    0.0000 H   0  0  0  0  0  0  0  0  0  0  0  0
   -0.0825   -1.3721    0.0000 H   0  0  0  0  0  0  0  0  0  0  0  0
    0.6670   -0.9589    0.0000 H   0  0  0  0  0  0  0  0  0  0  0  0
  1  2  1  0  0  0  0
  2  3  1  0  0  0  0
  2  4  1  0  0  0  0
  2  5  1  0  0  0  0
  5  6  2  0  0  0  0
  5  7  1  0  0  0  0
  8  7  4  0  0  0  0
  9  8  4  0  0  0  0
 10  9  4  0  0  0  0
 10 11  1  0  0  0  0
 11 12  1  0  0  0  0
 12 13  1  0  0  0  0
 13 14  1  0  0  0  0
 15 10  4  0  0  0  0
 16 15  4  0  0  0  0
  7 16  4  0  0  0  0
  1 17  1  0  0  0  0
  1 18  1  0  0  0  0
  1 19  1  0  0  0  0
  3 20  1  0  0  0  0
  3 21  1  0  0  0  0
  3 22  1  0  0  0  0
  4 23  1  0  0  0  0
  8 24  1  0  0  0  0
  9 25  1  0  0  0  0
 12 26  1  0  0  0  0
 12 27  1  0  0  0  0
 13 28  1  0  0  0  0
 13 29  1  0  0  0  0
 14 30  1  0  0  0  0
 15 31  1  0  0  0  0
 16 32  1  0  0  0  0
M  END
>  <id_input>
2482

>  <InChIKey>
GJKGAPPUXSSCFI-UHFFFAOYSA-N

>  <substance_name>
2-hydroxy-1-[4-(2-hydroxyethoxy)phenyl]-2-methylpropan-1-one

>  <casrn>
106797-53-9

>  <Molecular weight>
224.2530517578125

>  <guideline>
OECD Guideline 404 (Acute Dermal Irritation / Corrosion)

>  <species>
rabbit

>  <type_of_coverage>
semiocclusive

>  <max_duration(hrs)>
4.0

>  <vehicle>
other: Moistened with aqua pro injectione

>  <edema/ erythema score>
0.466666666666666

>  <reversibility>
0.0

>  <Outcome>
0

>  <StandardizerResult>
Remove Explicit Hydrogens (ID: RemoveExplicitH)
Dearomatize (ID: Dearomatize)
Clear Stereo (ID: ClearStereo)
Wedge Clean (ID: WedgeClean)
Mesomerize (ID: Mesomerize)
Tautomerize (ID: Tautomerize)
Aromatize (ID: Aromatize)
Add Explicit Hydrogens (ID: AddExplicitH)
Neutralize (ID: Neutralize)
Clean 2D (ID: Clean2D)


$$$$

  Mrv1812 02121911042D          

 39 41  0  0  0  0            999 V2000
   -0.1966   -5.1537    0.0000 C   0  0  0  0  0  0  0  0  0  0  0  0
    0.1390   -4.4000    0.0000 C   0  0  0  0  0  0  0  0  0  0  0  0
    0.9595   -4.3138    0.0000 O   0  0  0  0  0  0  0  0  0  0  0  0
    1.2950   -3.5601    0.0000 C   0  0  0  0  0  0  0  0  0  0  0  0
    2.1155   -3.4739    0.0000 O   0  0  0  0  0  0  0  0  0  0  0  0
    0.8101   -2.8927    0.0000 C   0  0  0  0  0  0  0  0  0  0  0  0
   -0.0149   -2.8927    0.0000 N   0  0  0  0  0  0  0  0  0  0  0  0
   -0.2698   -2.1080    0.0000 O   0  0  0  0  0  0  0  0  0  0  0  0
    0.3976   -1.6231    0.0000 C   0  0  0  0  0  0  0  0  0  0  0  0
    1.0651   -2.1080    0.0000 C   0  0  0  0  0  0  0  0  0  0  0  0
   -0.2097   -1.0647    0.0000 C   0  0  0  0  0  0  0  0  0  0  0  0
   -0.0297   -0.2596    0.0000 C   0  0  0  0  0  0  0  0  0  0  0  0
   -0.6370    0.2989    0.0000 C   0  0  0  0  0  0  0  0  0  0  0  0
   -1.4242    0.0521    0.0000 C   0  0  0  0  0  0  0  0  0  0  0  0
   -1.6042   -0.7530    0.0000 C   0  0  0  0  0  0  0  0  0  0  0  0
   -0.9969   -1.3114    0.0000 C   0  0  0  0  0  0  0  0  0  0  0  0
    0.8026   -0.9044    0.0000 C   0  0  0  0  0  0  0  0  0  0  0  0
    1.6276   -0.8957    0.0000 C   0  0  0  0  0  0  0  0  0  0  0  0
    2.0326   -0.1770    0.0000 C   0  0  0  0  0  0  0  0  0  0  0  0
    1.6126    0.5331    0.0000 C   0  0  0  0  0  0  0  0  0  0  0  0
    0.7876    0.5245    0.0000 C   0  0  0  0  0  0  0  0  0  0  0  0
    0.3827   -0.1943    0.0000 C   0  0  0  0  0  0  0  0  0  0  0  0
   -0.9502   -4.8181    0.0000 H   0  0  0  0  0  0  0  0  0  0  0  0
   -0.5321   -5.9074    0.0000 H   0  0  0  0  0  0  0  0  0  0  0  0
    0.5571   -5.4892    0.0000 H   0  0  0  0  0  0  0  0  0  0  0  0
    0.0052   -3.5859    0.0000 H   0  0  0  0  0  0  0  0  0  0  0  0
   -0.5939   -4.0212    0.0000 H   0  0  0  0  0  0  0  0  0  0  0  0
    1.8775   -2.2513    0.0000 H   0  0  0  0  0  0  0  0  0  0  0  0
    1.6381   -1.5146    0.0000 H   0  0  0  0  0  0  0  0  0  0  0  0
    0.2088    0.5302    0.0000 H   0  0  0  0  0  0  0  0  0  0  0  0
   -0.8692    1.0905    0.0000 H   0  0  0  0  0  0  0  0  0  0  0  0
   -2.0315    0.6106    0.0000 H   0  0  0  0  0  0  0  0  0  0  0  0
   -2.3914   -0.9997    0.0000 H   0  0  0  0  0  0  0  0  0  0  0  0
   -1.1769   -2.1165    0.0000 H   0  0  0  0  0  0  0  0  0  0  0  0
    2.4273   -1.0982    0.0000 H   0  0  0  0  0  0  0  0  0  0  0  0
    2.8575   -0.1683    0.0000 H   0  0  0  0  0  0  0  0  0  0  0  0
    2.0176    1.2519    0.0000 H   0  0  0  0  0  0  0  0  0  0  0  0
    0.7874    1.3495    0.0000 H   0  0  0  0  0  0  0  0  0  0  0  0
    1.2076   -0.1856    0.0000 H   0  0  0  0  0  0  0  0  0  0  0  0
  1  2  1  0  0  0  0
  2  3  1  0  0  0  0
  3  4  1  0  0  0  0
  4  5  2  0  0  0  0
  4  6  1  0  0  0  0
  7  6  2  0  0  0  0
  8  7  1  0  0  0  0
  9  8  1  0  0  0  0
 10  9  1  0  0  0  0
  9 11  1  0  0  0  0
 12 11  4  0  0  0  0
 13 12  4  0  0  0  0
 14 13  4  0  0  0  0
 15 14  4  0  0  0  0
 16 15  4  0  0  0  0
  9 17  1  0  0  0  0
 18 17  4  0  0  0  0
 19 18  4  0  0  0  0
 20 19  4  0  0  0  0
 21 20  4  0  0  0  0
 22 21  4  0  0  0  0
  6 10  1  0  0  0  0
 11 16  4  0  0  0  0
 17 22  4  0  0  0  0
  1 23  1  0  0  0  0
  1 24  1  0  0  0  0
  1 25  1  0  0  0  0
  2 26  1  0  0  0  0
  2 27  1  0  0  0  0
 10 28  1  0  0  0  0
 10 29  1  0  0  0  0
 12 30  1  0  0  0  0
 13 31  1  0  0  0  0
 14 32  1  0  0  0  0
 15 33  1  0  0  0  0
 16 34  1  0  0  0  0
 18 35  1  0  0  0  0
 19 36  1  0  0  0  0
 20 37  1  0  0  0  0
 21 38  1  0  0  0  0
 22 39  1  0  0  0  0
M  END
>  <id_input>
4350

>  <InChIKey>
MWKVXOJATACCCH-UHFFFAOYSA-N

>  <substance_name>
ethyl 5,5-diphenyl-4,5-dihydro-1,2-oxazole-3-carboxylate

>  <casrn>
163520-33-0

>  <Molecular weight>
295.3324890136719

>  <guideline>
OECD Guideline 404 (Acute Dermal Irritation / Corrosion)

>  <species>
rabbit

>  <type_of_coverage>
semiocclusive

>  <max_duration(hrs)>
4.0

>  <vehicle>
other: polyethylene glycol 400

>  <edema/ erythema score>
0.0

>  <max_score>
4.0

>  <reversibility>
0.0

>  <Outcome>
0

>  <StandardizerResult>
Remove Explicit Hydrogens (ID: RemoveExplicitH)
Dearomatize (ID: Dearomatize)
Clear Stereo (ID: ClearStereo)
Wedge Clean (ID: WedgeClean)
Mesomerize (ID: Mesomerize)
Tautomerize (ID: Tautomerize)
Aromatize (ID: Aromatize)
Add Explicit Hydrogens (ID: AddExplicitH)
Neutralize (ID: Neutralize)
Clean 2D (ID: Clean2D)


$$$$

  Mrv1812 02121911042D          

 32 32  0  0  0  0            999 V2000
    1.4613   -2.5982    0.0000 C   0  0  0  0  0  0  0  0  0  0  0  0
    0.7469   -2.1857    0.0000 C   0  0  0  0  0  0  0  0  0  0  0  0
    0.7469   -1.3607    0.0000 N   0  0  0  0  0  0  0  0  0  0  0  0
    0.0324   -0.9482    0.0000 C   0  0  0  0  0  0  0  0  0  0  0  0
    0.0324   -0.1232    0.0000 N   0  0  0  0  0  0  0  0  0  0  0  0
   -0.6821    0.2893    0.0000 C   0  0  0  0  0  0  0  0  0  0  0  0
   -0.6821    1.1143    0.0000 N   0  0  0  0  0  0  0  0  0  0  0  0
    0.0324    1.5268    0.0000 C   0  0  0  0  0  0  0  0  0  0  0  0
    0.0324    2.3518    0.0000 C   0  0  0  0  0  0  0  0  0  0  0  0
    0.7469    1.1143    0.0000 C   0  0  0  0  0  0  0  0  0  0  0  0
   -1.3966   -0.1232    0.0000 N   0  0  0  0  0  0  0  0  0  0  0  0
   -1.3966   -0.9482    0.0000 C   0  0  0  0  0  0  0  0  0  0  0  0
   -2.1110   -1.3607    0.0000 S   0  0  0  0  0  0  0  0  0  0  0  0
   -2.1110   -2.1857    0.0000 C   0  0  0  0  0  0  0  0  0  0  0  0
   -0.6821   -1.3607    0.0000 N   0  0  0  0  0  0  0  0  0  0  0  0
    1.0488   -3.3127    0.0000 H   0  0  0  0  0  0  0  0  0  0  0  0
    2.1758   -3.0107    0.0000 H   0  0  0  0  0  0  0  0  0  0  0  0
    1.8738   -1.8838    0.0000 H   0  0  0  0  0  0  0  0  0  0  0  0
   -0.0767   -2.2337    0.0000 H   0  0  0  0  0  0  0  0  0  0  0  0
    0.2935   -2.8750    0.0000 H   0  0  0  0  0  0  0  0  0  0  0  0
    1.4613   -0.9482    0.0000 H   0  0  0  0  0  0  0  0  0  0  0  0
   -1.3966    1.5268    0.0000 H   0  0  0  0  0  0  0  0  0  0  0  0
   -0.6821    1.9393    0.0000 H   0  0  0  0  0  0  0  0  0  0  0  0
    0.8293    2.1382    0.0000 H   0  0  0  0  0  0  0  0  0  0  0  0
    0.4449    3.0662    0.0000 H   0  0  0  0  0  0  0  0  0  0  0  0
   -0.5510    2.9351    0.0000 H   0  0  0  0  0  0  0  0  0  0  0  0
    0.3344    0.3998    0.0000 H   0  0  0  0  0  0  0  0  0  0  0  0
    1.4613    0.7018    0.0000 H   0  0  0  0  0  0  0  0  0  0  0  0
    1.1594    1.8287    0.0000 H   0  0  0  0  0  0  0  0  0  0  0  0
   -2.9360   -2.1857    0.0000 H   0  0  0  0  0  0  0  0  0  0  0  0
   -2.1110   -3.0107    0.0000 H   0  0  0  0  0  0  0  0  0  0  0  0
   -1.2860   -2.1857    0.0000 H   0  0  0  0  0  0  0  0  0  0  0  0
  1  2  1  0  0  0  0
  2  3  1  0  0  0  0
  3  4  1  0  0  0  0
  5  4  4  0  0  0  0
  6  5  4  0  0  0  0
  6  7  1  0  0  0  0
  7  8  1  0  0  0  0
  8  9  1  0  0  0  0
  8 10  1  0  0  0  0
 11  6  4  0  0  0  0
 12 11  4  0  0  0  0
 12 13  1  0  0  0  0
 13 14  1  0  0  0  0
 15 12  4  0  0  0  0
  4 15  4  0  0  0  0
  1 16  1  0  0  0  0
  1 17  1  0  0  0  0
  1 18  1  0  0  0  0
  2 19  1  0  0  0  0
  2 20  1  0  0  0  0
  3 21  1  0  0  0  0
  7 22  1  0  0  0  0
  8 23  1  0  0  0  0
  9 24  1  0  0  0  0
  9 25  1  0  0  0  0
  9 26  1  0  0  0  0
 10 27  1  0  0  0  0
 10 28  1  0  0  0  0
 10 29  1  0  0  0  0
 14 30  1  0  0  0  0
 14 31  1  0  0  0  0
 14 32  1  0  0  0  0
M  END
>  <id_input>
3483

>  <InChIKey>
RQVYBGPQFYCBGX-UHFFFAOYSA-N

>  <substance_name>
N-ethyl-N'-isopropyl-6-(methylsulfanyl)-1,3,5-triazine-2,4-diamine

>  <casrn>
834-12-8

>  <Molecular weight>
227.32977294921875

>  <guideline>
OECD Guideline 404 (Acute Dermal Irritation / Corrosion)

>  <species>
rabbit

>  <type_of_coverage>
semiocclusive

>  <max_duration(hrs)>
4.0

>  <vehicle>
water

>  <edema/ erythema score>
0.5

>  <max_score>
4.0

>  <reversibility>
0.0

>  <Outcome>
0

>  <StandardizerResult>
Remove Explicit Hydrogens (ID: RemoveExplicitH)
Dearomatize (ID: Dearomatize)
Clear Stereo (ID: ClearStereo)
Wedge Clean (ID: WedgeClean)
Mesomerize (ID: Mesomerize)
Tautomerize (ID: Tautomerize)
Aromatize (ID: Aromatize)
Add Explicit Hydrogens (ID: AddExplicitH)
Neutralize (ID: Neutralize)
Clean 2D (ID: Clean2D)


$$$$

  Mrv1812 02121911042D          

 35 35  0  0  0  0            999 V2000
    2.9624    0.2292    0.0000 C   0  0  0  0  0  0  0  0  0  0  0  0
    2.2480    0.6417    0.0000 C   0  0  0  0  0  0  0  0  0  0  0  0
    1.5335    0.2292    0.0000 C   0  0  0  0  0  0  0  0  0  0  0  0
    0.8190    0.6417    0.0000 C   0  0  0  0  0  0  0  0  0  0  0  0
    1.5335   -0.5958    0.0000 O   0  0  0  0  0  0  0  0  0  0  0  0
    0.8190   -1.0083    0.0000 C   0  0  0  0  0  0  0  0  0  0  0  0
    0.1046   -0.5958    0.0000 C   0  0  0  0  0  0  0  0  0  0  0  0
   -0.6099   -1.0083    0.0000 C   0  0  0  0  0  0  0  0  0  0  0  0
   -0.6099   -1.8333    0.0000 C   0  0  0  0  0  0  0  0  0  0  0  0
    0.1046   -2.2458    0.0000 C   0  0  0  0  0  0  0  0  0  0  0  0
    0.8190   -1.8333    0.0000 C   0  0  0  0  0  0  0  0  0  0  0  0
    1.5335   -2.2458    0.0000 O   0  0  0  0  0  0  0  0  0  0  0  0
    2.2480   -1.8333    0.0000 C   0  0  0  0  0  0  0  0  0  0  0  0
   -1.3244   -2.2458    0.0000 C   0  0  0  0  0  0  0  0  0  0  0  0
   -1.3244   -3.0708    0.0000 O   0  0  0  0  0  0  0  0  0  0  0  0
    0.1046    0.2292    0.0000 O   0  0  0  0  0  0  0  0  0  0  0  0
   -0.6099    0.6417    0.0000 C   0  0  0  0  0  0  0  0  0  0  0  0
    2.5499   -0.4852    0.0000 H   0  0  0  0  0  0  0  0  0  0  0  0
    3.6769   -0.1833    0.0000 H   0  0  0  0  0  0  0  0  0  0  0  0
    3.3749    0.9437    0.0000 H   0  0  0  0  0  0  0  0  0  0  0  0
    2.6182    1.3790    0.0000 H   0  0  0  0  0  0  0  0  0  0  0  0
    1.8777    1.3790    0.0000 H   0  0  0  0  0  0  0  0  0  0  0  0
    1.5335    1.0542    0.0000 H   0  0  0  0  0  0  0  0  0  0  0  0
    0.6758    1.4542    0.0000 H   0  0  0  0  0  0  0  0  0  0  0  0
    0.1870    1.1720    0.0000 H   0  0  0  0  0  0  0  0  0  0  0  0
    0.8190   -0.1833    0.0000 H   0  0  0  0  0  0  0  0  0  0  0  0
   -1.3244   -0.5958    0.0000 H   0  0  0  0  0  0  0  0  0  0  0  0
    0.1046   -3.0708    0.0000 H   0  0  0  0  0  0  0  0  0  0  0  0
    2.6605   -2.5477    0.0000 H   0  0  0  0  0  0  0  0  0  0  0  0
    2.9624   -1.4208    0.0000 H   0  0  0  0  0  0  0  0  0  0  0  0
    1.8355   -1.1188    0.0000 H   0  0  0  0  0  0  0  0  0  0  0  0
   -2.0389   -1.8333    0.0000 H   0  0  0  0  0  0  0  0  0  0  0  0
   -0.8611    1.4275    0.0000 H   0  0  0  0  0  0  0  0  0  0  0  0
   -1.4345    0.6155    0.0000 H   0  0  0  0  0  0  0  0  0  0  0  0
   -0.8108   -0.1584    0.0000 H   0  0  0  0  0  0  0  0  0  0  0  0
  1  2  1  0  0  0  0
  2  3  1  0  0  0  0
  3  4  1  0  0  0  0
  3  5  1  0  0  0  0
  5  6  1  0  0  0  0
  7  6  4  0  0  0  0
  8  7  4  0  0  0  0
  9  8  4  0  0  0  0
 10  9  4  0  0  0  0
 11 10  4  0  0  0  0
 11 12  1  0  0  0  0
 12 13  1  0  0  0  0
  9 14  1  0  0  0  0
 14 15  2  0  0  0  0
  7 16  1  0  0  0  0
 16 17  1  0  0  0  0
  6 11  4  0  0  0  0
  1 18  1  0  0  0  0
  1 19  1  0  0  0  0
  1 20  1  0  0  0  0
  2 21  1  0  0  0  0
  2 22  1  0  0  0  0
  3 23  1  0  0  0  0
  4 24  1  0  0  0  0
  4 25  1  0  0  0  0
  4 26  1  0  0  0  0
  8 27  1  0  0  0  0
 10 28  1  0  0  0  0
 13 29  1  0  0  0  0
 13 30  1  0  0  0  0
 13 31  1  0  0  0  0
 14 32  1  0  0  0  0
 17 33  1  0  0  0  0
 17 34  1  0  0  0  0
 17 35  1  0  0  0  0
M  END
>  <id_input>
5364

>  <InChIKey>
VCHJCKGXKVNISR-UHFFFAOYSA-N

>  <substance_name>
unnamed [224586-49-6]

>  <casrn>
224586-49-6

>  <Molecular weight>
238.27963256835938

>  <guideline>
OECD Guideline 404 (Acute Dermal Irritation / Corrosion)

>  <species>
rabbit

>  <type_of_coverage>
semiocclusive

>  <max_duration(hrs)>
4.0

>  <vehicle>
unchanged (no vehicle)

>  <edema/ erythema score>
0.44

>  <max_score>
2.0

>  <reversibility>
0.0

>  <Outcome>
0

>  <StandardizerResult>
Remove Explicit Hydrogens (ID: RemoveExplicitH)
Dearomatize (ID: Dearomatize)
Clear Stereo (ID: ClearStereo)
Wedge Clean (ID: WedgeClean)
Mesomerize (ID: Mesomerize)
Tautomerize (ID: Tautomerize)
Aromatize (ID: Aromatize)
Add Explicit Hydrogens (ID: AddExplicitH)
Neutralize (ID: Neutralize)
Clean 2D (ID: Clean2D)


$$$$

  Mrv1812 02121911042D          

 25 25  0  0  0  0            999 V2000
    2.0573    2.1190    0.0000 C   0  0  0  0  0  0  0  0  0  0  0  0
    1.3428    1.7065    0.0000 C   0  0  0  0  0  0  0  0  0  0  0  0
    1.3428    0.8815    0.0000 O   0  0  0  0  0  0  0  0  0  0  0  0
    0.6284    0.4690    0.0000 C   0  0  0  0  0  0  0  0  0  0  0  0
   -0.0861    0.8815    0.0000 C   0  0  0  0  0  0  0  0  0  0  0  0
   -0.8006    0.4690    0.0000 C   0  0  0  0  0  0  0  0  0  0  0  0
   -0.8006   -0.3560    0.0000 C   0  0  0  0  0  0  0  0  0  0  0  0
   -0.0861   -0.7685    0.0000 C   0  0  0  0  0  0  0  0  0  0  0  0
    0.6284   -0.3560    0.0000 C   0  0  0  0  0  0  0  0  0  0  0  0
    1.3428   -0.7685    0.0000 C   0  0  0  0  0  0  0  0  0  0  0  0
    1.3428   -1.5935    0.0000 N   0  0  0  0  0  0  0  0  0  0  0  0
    2.0573   -2.0060    0.0000 O   0  0  0  0  0  0  0  0  0  0  0  0
    2.0573   -0.3560    0.0000 N   0  0  0  0  0  0  0  0  0  0  0  0
    2.4698    1.4046    0.0000 H   0  0  0  0  0  0  0  0  0  0  0  0
    2.7718    2.5315    0.0000 H   0  0  0  0  0  0  0  0  0  0  0  0
    1.6448    2.8335    0.0000 H   0  0  0  0  0  0  0  0  0  0  0  0
    0.8895    2.3958    0.0000 H   0  0  0  0  0  0  0  0  0  0  0  0
    0.5192    1.7545    0.0000 H   0  0  0  0  0  0  0  0  0  0  0  0
   -0.0861    1.7065    0.0000 H   0  0  0  0  0  0  0  0  0  0  0  0
   -1.5150    0.8815    0.0000 H   0  0  0  0  0  0  0  0  0  0  0  0
   -1.5150   -0.7685    0.0000 H   0  0  0  0  0  0  0  0  0  0  0  0
   -0.0861   -1.5935    0.0000 H   0  0  0  0  0  0  0  0  0  0  0  0
    0.6284   -2.0060    0.0000 H   0  0  0  0  0  0  0  0  0  0  0  0
    2.0573   -2.8310    0.0000 H   0  0  0  0  0  0  0  0  0  0  0  0
    2.7718   -0.7685    0.0000 H   0  0  0  0  0  0  0  0  0  0  0  0
  1  2  1  0  0  0  0
  2  3  1  0  0  0  0
  3  4  1  0  0  0  0
  5  4  4  0  0  0  0
  6  5  4  0  0  0  0
  7  6  4  0  0  0  0
  8  7  4  0  0  0  0
  9  8  4  0  0  0  0
  9 10  1  0  0  0  0
 10 11  1  0  0  0  0
 11 12  1  0  0  0  0
 10 13  2  0  0  0  0
  4  9  4  0  0  0  0
  1 14  1  0  0  0  0
  1 15  1  0  0  0  0
  1 16  1  0  0  0  0
  2 17  1  0  0  0  0
  2 18  1  0  0  0  0
  5 19  1  0  0  0  0
  6 20  1  0  0  0  0
  7 21  1  0  0  0  0
  8 22  1  0  0  0  0
 11 23  1  0  0  0  0
 12 24  1  0  0  0  0
 13 25  1  0  0  0  0
M  END
>  <id_input>
5526

>  <InChIKey>
ZOGRANBHYCXFRO-UHFFFAOYSA-N

>  <substance_name>
unnamed [879-57-2]

>  <casrn>
879-57-2

>  <Molecular weight>
180.2037811279297

>  <guideline>
OECD Guideline 404 (Acute Dermal Irritation / Corrosion)

>  <species>
rabbit

>  <type_of_coverage>
semiocclusive

>  <max_duration(hrs)>
4.0

>  <vehicle>
other: test item moistened with water

>  <edema/ erythema score>
0.0

>  <max_score>
4.0

>  <reversibility>
0.0

>  <Outcome>
0

>  <StandardizerResult>
Remove Explicit Hydrogens (ID: RemoveExplicitH)
Dearomatize (ID: Dearomatize)
Clear Stereo (ID: ClearStereo)
Wedge Clean (ID: WedgeClean)
Mesomerize (ID: Mesomerize)
Tautomerize (ID: Tautomerize)
Aromatize (ID: Aromatize)
Add Explicit Hydrogens (ID: AddExplicitH)
Neutralize (ID: Neutralize)
Clean 2D (ID: Clean2D)


$$$$

  Mrv1812 02121911042D          

 44 44  0  0  0  0            999 V2000
   -0.8235   -2.3386    0.0000 C   0  0  0  0  0  0  0  0  0  0  0  0
   -0.1090   -1.9261    0.0000 C   0  0  0  0  0  0  0  0  0  0  0  0
   -0.1090   -1.1011    0.0000 C   0  0  0  0  0  0  0  0  0  0  0  0
    0.6055   -2.3386    0.0000 C   0  0  0  0  0  0  0  0  0  0  0  0
    1.3199   -1.9261    0.0000 C   0  0  0  0  0  0  0  0  0  0  0  0
    2.0344   -2.3386    0.0000 C   0  0  0  0  0  0  0  0  0  0  0  0
    2.7489   -1.9261    0.0000 C   0  0  0  0  0  0  0  0  0  0  0  0
    2.7489   -1.1011    0.0000 C   0  0  0  0  0  0  0  0  0  0  0  0
    3.4633   -2.3386    0.0000 C   0  0  0  0  0  0  0  0  0  0  0  0
    4.1778   -1.9261    0.0000 C   0  0  0  0  0  0  0  0  0  0  0  0
    4.8923   -2.3386    0.0000 O   0  0  0  0  0  0  0  0  0  0  0  0
    5.6068   -1.9261    0.0000 C   0  0  0  0  0  0  0  0  0  0  0  0
    5.6068   -1.1011    0.0000 O   0  0  0  0  0  0  0  0  0  0  0  0
    6.3212   -2.3386    0.0000 C   0  0  0  0  0  0  0  0  0  0  0  0
    7.0357   -1.9261    0.0000 C   0  0  0  0  0  0  0  0  0  0  0  0
    7.7502   -2.3386    0.0000 C   0  0  0  0  0  0  0  0  0  0  0  0
    8.4646   -1.9261    0.0000 C   0  0  0  0  0  0  0  0  0  0  0  0
    8.4646   -1.1011    0.0000 C   0  0  0  0  0  0  0  0  0  0  0  0
    7.7502   -0.6886    0.0000 C   0  0  0  0  0  0  0  0  0  0  0  0
    7.0357   -1.1011    0.0000 C   0  0  0  0  0  0  0  0  0  0  0  0
   -1.2360   -1.6241    0.0000 H   0  0  0  0  0  0  0  0  0  0  0  0
   -1.5380   -2.7511    0.0000 H   0  0  0  0  0  0  0  0  0  0  0  0
   -0.4110   -3.0531    0.0000 H   0  0  0  0  0  0  0  0  0  0  0  0
    0.7160   -1.1011    0.0000 H   0  0  0  0  0  0  0  0  0  0  0  0
   -0.1090   -0.2761    0.0000 H   0  0  0  0  0  0  0  0  0  0  0  0
   -0.9340   -1.1011    0.0000 H   0  0  0  0  0  0  0  0  0  0  0  0
    0.6055   -3.1636    0.0000 H   0  0  0  0  0  0  0  0  0  0  0  0
    1.6902   -1.1888    0.0000 H   0  0  0  0  0  0  0  0  0  0  0  0
    0.9497   -1.1888    0.0000 H   0  0  0  0  0  0  0  0  0  0  0  0
    1.6641   -3.0758    0.0000 H   0  0  0  0  0  0  0  0  0  0  0  0
    2.4047   -3.0758    0.0000 H   0  0  0  0  0  0  0  0  0  0  0  0
    3.5739   -1.1011    0.0000 H   0  0  0  0  0  0  0  0  0  0  0  0
    2.7489   -0.2761    0.0000 H   0  0  0  0  0  0  0  0  0  0  0  0
    1.9239   -1.1011    0.0000 H   0  0  0  0  0  0  0  0  0  0  0  0
    3.4633   -3.1636    0.0000 H   0  0  0  0  0  0  0  0  0  0  0  0
    4.5481   -1.1888    0.0000 H   0  0  0  0  0  0  0  0  0  0  0  0
    3.8076   -1.1888    0.0000 H   0  0  0  0  0  0  0  0  0  0  0  0
    5.9510   -3.0758    0.0000 H   0  0  0  0  0  0  0  0  0  0  0  0
    6.6915   -3.0758    0.0000 H   0  0  0  0  0  0  0  0  0  0  0  0
    7.7502   -3.1636    0.0000 H   0  0  0  0  0  0  0  0  0  0  0  0
    9.1791   -2.3386    0.0000 H   0  0  0  0  0  0  0  0  0  0  0  0
    9.1791   -0.6886    0.0000 H   0  0  0  0  0  0  0  0  0  0  0  0
    7.7502    0.1364    0.0000 H   0  0  0  0  0  0  0  0  0  0  0  0
    6.3212   -0.6886    0.0000 H   0  0  0  0  0  0  0  0  0  0  0  0
  1  2  1  0  0  0  0
  2  3  1  0  0  0  0
  2  4  2  0  0  0  0
  4  5  1  0  0  0  0
  5  6  1  0  0  0  0
  6  7  1  0  0  0  0
  7  8  1  0  0  0  0
  7  9  2  0  0  0  0
  9 10  1  4  0  0  0
 10 11  1  0  0  0  0
 11 12  1  0  0  0  0
 12 13  2  0  0  0  0
 12 14  1  0  0  0  0
 14 15  1  0  0  0  0
 16 15  4  0  0  0  0
 17 16  4  0  0  0  0
 18 17  4  0  0  0  0
 19 18  4  0  0  0  0
 20 19  4  0  0  0  0
 15 20  4  0  0  0  0
  1 21  1  0  0  0  0
  1 22  1  0  0  0  0
  1 23  1  0  0  0  0
  3 24  1  0  0  0  0
  3 25  1  0  0  0  0
  3 26  1  0  0  0  0
  4 27  1  0  0  0  0
  5 28  1  0  0  0  0
  5 29  1  0  0  0  0
  6 30  1  0  0  0  0
  6 31  1  0  0  0  0
  8 32  1  0  0  0  0
  8 33  1  0  0  0  0
  8 34  1  0  0  0  0
  9 35  1  0  0  0  0
 10 36  1  0  0  0  0
 10 37  1  0  0  0  0
 14 38  1  0  0  0  0
 14 39  1  0  0  0  0
 16 40  1  0  0  0  0
 17 41  1  0  0  0  0
 18 42  1  0  0  0  0
 19 43  1  0  0  0  0
 20 44  1  0  0  0  0
M  END
>  <id_input>
49, 50

>  <InChIKey>
UXAIJXIHZDZMSK-UHFFFAOYSA-N

>  <substance_name>
(2E)-3,7-dimethylocta-2,6-dien-1-yl 2-phenylacetate

>  <casrn>
102-22-7

>  <Molecular weight>
272.3819580078125

>  <guideline>
OECD Guideline 404 (Acute Dermal Irritation / Corrosion)

>  <species>
rabbit

>  <type_of_coverage>
occlusive

>  <max_duration(hrs)>
4.0

>  <vehicle>
unchanged (no vehicle)

>  <edema/ erythema score>
0.25

>  <max_score>
3.5

>  <reversibility>
0.0

>  <Outcome>
0

>  <StandardizerResult>
Remove Explicit Hydrogens (ID: RemoveExplicitH)
Dearomatize (ID: Dearomatize)
Clear Stereo (ID: ClearStereo)
Wedge Clean (ID: WedgeClean)
Mesomerize (ID: Mesomerize)
Tautomerize (ID: Tautomerize)
Aromatize (ID: Aromatize)
Add Explicit Hydrogens (ID: AddExplicitH)
Neutralize (ID: Neutralize)
Clean 2D (ID: Clean2D)


$$$$

  Mrv1812 02121911042D          

 40 41  0  0  0  0            999 V2000
    1.5472    2.8115    0.0000 C   0  0  0  0  0  0  0  0  0  0  0  0
    0.8328    3.2240    0.0000 S   0  0  0  0  0  0  0  0  0  0  0  0
    0.1183    2.8115    0.0000 C   0  0  0  0  0  0  0  0  0  0  0  0
   -0.5962    3.2240    0.0000 C   0  0  0  0  0  0  0  0  0  0  0  0
   -1.3106    2.8115    0.0000 C   0  0  0  0  0  0  0  0  0  0  0  0
   -1.3106    1.9865    0.0000 C   0  0  0  0  0  0  0  0  0  0  0  0
   -0.5962    1.5740    0.0000 C   0  0  0  0  0  0  0  0  0  0  0  0
    0.1183    1.9865    0.0000 C   0  0  0  0  0  0  0  0  0  0  0  0
   -2.0251    1.5740    0.0000 C   0  0  0  0  0  0  0  0  0  0  0  0
   -2.7396    1.9865    0.0000 O   0  0  0  0  0  0  0  0  0  0  0  0
   -2.0251    0.7490    0.0000 C   0  0  0  0  0  0  0  0  0  0  0  0
   -2.8501    0.7490    0.0000 C   0  0  0  0  0  0  0  0  0  0  0  0
   -1.2001    0.7490    0.0000 C   0  0  0  0  0  0  0  0  0  0  0  0
   -2.0251   -0.0760    0.0000 N   0  0  0  0  0  0  0  0  0  0  0  0
   -2.7396   -0.4885    0.0000 C   0  0  0  0  0  0  0  0  0  0  0  0
   -2.7396   -1.3135    0.0000 C   0  0  0  0  0  0  0  0  0  0  0  0
   -2.0251   -1.7260    0.0000 O   0  0  0  0  0  0  0  0  0  0  0  0
   -1.3106   -1.3135    0.0000 C   0  0  0  0  0  0  0  0  0  0  0  0
   -1.3106   -0.4885    0.0000 C   0  0  0  0  0  0  0  0  0  0  0  0
    1.1347    2.0970    0.0000 H   0  0  0  0  0  0  0  0  0  0  0  0
    2.2617    2.3990    0.0000 H   0  0  0  0  0  0  0  0  0  0  0  0
    1.9597    3.5260    0.0000 H   0  0  0  0  0  0  0  0  0  0  0  0
   -0.5962    4.0490    0.0000 H   0  0  0  0  0  0  0  0  0  0  0  0
   -2.0251    3.2240    0.0000 H   0  0  0  0  0  0  0  0  0  0  0  0
   -0.5962    0.7490    0.0000 H   0  0  0  0  0  0  0  0  0  0  0  0
    0.8328    1.5740    0.0000 H   0  0  0  0  0  0  0  0  0  0  0  0
   -2.8501    1.5740    0.0000 H   0  0  0  0  0  0  0  0  0  0  0  0
   -3.6751    0.7490    0.0000 H   0  0  0  0  0  0  0  0  0  0  0  0
   -2.8501   -0.0760    0.0000 H   0  0  0  0  0  0  0  0  0  0  0  0
   -0.9179    1.5243    0.0000 H   0  0  0  0  0  0  0  0  0  0  0  0
   -1.4823    1.5243    0.0000 H   0  0  0  0  0  0  0  0  0  0  0  0
   -1.2001   -0.0760    0.0000 H   0  0  0  0  0  0  0  0  0  0  0  0
   -3.5148   -0.2063    0.0000 H   0  0  0  0  0  0  0  0  0  0  0  0
   -3.4154   -0.9617    0.0000 H   0  0  0  0  0  0  0  0  0  0  0  0
   -3.4418   -1.7466    0.0000 H   0  0  0  0  0  0  0  0  0  0  0  0
   -2.7276   -2.1384    0.0000 H   0  0  0  0  0  0  0  0  0  0  0  0
   -0.8573   -2.0028    0.0000 H   0  0  0  0  0  0  0  0  0  0  0  0
   -0.4870   -1.3615    0.0000 H   0  0  0  0  0  0  0  0  0  0  0  0
   -0.6348   -0.9617    0.0000 H   0  0  0  0  0  0  0  0  0  0  0  0
   -0.5354   -0.2063    0.0000 H   0  0  0  0  0  0  0  0  0  0  0  0
  1  2  1  0  0  0  0
  2  3  1  0  0  0  0
  4  3  4  0  0  0  0
  5  4  4  0  0  0  0
  6  5  4  0  0  0  0
  7  6  4  0  0  0  0
  8  7  4  0  0  0  0
  6  9  1  0  0  0  0
  9 10  2  0  0  0  0
  9 11  1  0  0  0  0
 11 12  1  0  0  0  0
 11 13  1  0  0  0  0
 11 14  1  0  0  0  0
 15 14  1  0  0  0  0
 16 15  1  0  0  0  0
 17 16  1  0  0  0  0
 18 17  1  0  0  0  0
 19 18  1  0  0  0  0
  3  8  4  0  0  0  0
 14 19  1  0  0  0  0
  1 20  1  0  0  0  0
  1 21  1  0  0  0  0
  1 22  1  0  0  0  0
  4 23  1  0  0  0  0
  5 24  1  0  0  0  0
  7 25  1  0  0  0  0
  8 26  1  0  0  0  0
 12 27  1  0  0  0  0
 12 28  1  0  0  0  0
 12 29  1  0  0  0  0
 13 30  1  0  0  0  0
 13 31  1  0  0  0  0
 13 32  1  0  0  0  0
 15 33  1  0  0  0  0
 15 34  1  0  0  0  0
 16 35  1  0  0  0  0
 16 36  1  0  0  0  0
 18 37  1  0  0  0  0
 18 38  1  0  0  0  0
 19 39  1  0  0  0  0
 19 40  1  0  0  0  0
M  END
>  <id_input>
2525

>  <InChIKey>
LWRBVKNFOYUCNP-UHFFFAOYSA-N

>  <substance_name>
2-methyl-1-[4-(methylsulfanyl)phenyl]-2-(morpholin-4-yl)propan-1-one

>  <casrn>
71868-10-5

>  <Molecular weight>
279.3977355957031

>  <guideline>
OECD Guideline 404 (Acute Dermal Irritation / Corrosion)

>  <species>
rabbit

>  <type_of_coverage>
semiocclusive

>  <max_duration(hrs)>
4.0

>  <vehicle>
other: The substance was water moistened before application.

>  <edema/ erythema score>
0.0

>  <max_score>
4.0

>  <reversibility>
0.0

>  <Outcome>
0

>  <StandardizerResult>
Remove Explicit Hydrogens (ID: RemoveExplicitH)
Dearomatize (ID: Dearomatize)
Clear Stereo (ID: ClearStereo)
Wedge Clean (ID: WedgeClean)
Mesomerize (ID: Mesomerize)
Tautomerize (ID: Tautomerize)
Aromatize (ID: Aromatize)
Add Explicit Hydrogens (ID: AddExplicitH)
Neutralize (ID: Neutralize)
Clean 2D (ID: Clean2D)


$$$$

  Mrv1812 02121911042D          

 32 32  0  0  0  0            999 V2000
   -1.4095   -0.9211    0.0000 C   0  0  0  0  0  0  0  0  0  0  0  0
   -0.6950   -0.5086    0.0000 O   0  0  0  0  0  0  0  0  0  0  0  0
    0.0194   -0.9211    0.0000 C   0  0  0  0  0  0  0  0  0  0  0  0
    0.0194   -1.7461    0.0000 O   0  0  0  0  0  0  0  0  0  0  0  0
    0.7339   -0.5086    0.0000 C   0  0  0  0  0  0  0  0  0  0  0  0
    0.7339    0.3164    0.0000 C   0  0  0  0  0  0  0  0  0  0  0  0
    1.4484   -0.9211    0.0000 N   0  0  0  0  0  0  0  0  0  0  0  0
    2.1628   -0.5086    0.0000 C   0  0  0  0  0  0  0  0  0  0  0  0
    2.8773   -0.9211    0.0000 C   0  0  0  0  0  0  0  0  0  0  0  0
    2.8773   -1.7461    0.0000 C   0  0  0  0  0  0  0  0  0  0  0  0
    3.5918   -0.5086    0.0000 C   0  0  0  0  0  0  0  0  0  0  0  0
    3.5918    0.3164    0.0000 C   0  0  0  0  0  0  0  0  0  0  0  0
    2.8773    0.7289    0.0000 C   0  0  0  0  0  0  0  0  0  0  0  0
    2.1628    0.3164    0.0000 C   0  0  0  0  0  0  0  0  0  0  0  0
    1.4484    0.7289    0.0000 C   0  0  0  0  0  0  0  0  0  0  0  0
   -1.8220   -0.2066    0.0000 H   0  0  0  0  0  0  0  0  0  0  0  0
   -2.1240   -1.3336    0.0000 H   0  0  0  0  0  0  0  0  0  0  0  0
   -0.9970   -1.6355    0.0000 H   0  0  0  0  0  0  0  0  0  0  0  0
    0.0194   -0.0961    0.0000 H   0  0  0  0  0  0  0  0  0  0  0  0
    0.5906    1.1289    0.0000 H   0  0  0  0  0  0  0  0  0  0  0  0
    0.1019    0.8467    0.0000 H   0  0  0  0  0  0  0  0  0  0  0  0
    1.4484   -0.0961    0.0000 H   0  0  0  0  0  0  0  0  0  0  0  0
    1.4484   -1.7461    0.0000 H   0  0  0  0  0  0  0  0  0  0  0  0
    2.0523   -1.7461    0.0000 H   0  0  0  0  0  0  0  0  0  0  0  0
    2.8773   -2.5711    0.0000 H   0  0  0  0  0  0  0  0  0  0  0  0
    3.7023   -1.7461    0.0000 H   0  0  0  0  0  0  0  0  0  0  0  0
    4.3063   -0.9211    0.0000 H   0  0  0  0  0  0  0  0  0  0  0  0
    4.3063    0.7289    0.0000 H   0  0  0  0  0  0  0  0  0  0  0  0
    2.8773    1.5539    0.0000 H   0  0  0  0  0  0  0  0  0  0  0  0
    2.2404    0.9598    0.0000 H   0  0  0  0  0  0  0  0  0  0  0  0
    1.8293    1.4607    0.0000 H   0  0  0  0  0  0  0  0  0  0  0  0
    1.1832    1.5101    0.0000 H   0  0  0  0  0  0  0  0  0  0  0  0
  1  2  1  0  0  0  0
  2  3  1  0  0  0  0
  3  4  2  0  0  0  0
  3  5  1  0  0  0  0
  5  6  1  0  0  0  0
  5  7  1  0  0  0  0
  7  8  1  0  0  0  0
  9  8  4  0  0  0  0
  9 10  1  0  0  0  0
 11  9  4  0  0  0  0
 12 11  4  0  0  0  0
 13 12  4  0  0  0  0
 14 13  4  0  0  0  0
 14 15  1  0  0  0  0
  8 14  4  0  0  0  0
  1 16  1  0  0  0  0
  1 17  1  0  0  0  0
  1 18  1  0  0  0  0
  5 19  1  0  0  0  0
  6 20  1  0  0  0  0
  6 21  1  0  0  0  0
  6 22  1  0  0  0  0
  7 23  1  0  0  0  0
 10 24  1  0  0  0  0
 10 25  1  0  0  0  0
 10 26  1  0  0  0  0
 11 27  1  0  0  0  0
 12 28  1  0  0  0  0
 13 29  1  0  0  0  0
 15 30  1  0  0  0  0
 15 31  1  0  0  0  0
 15 32  1  0  0  0  0
M  END
>  <id_input>
4537

>  <InChIKey>
NEOYGRJJOGVQPO-UHFFFAOYSA-N

>  <substance_name>
methyl 2-[(2,6-dimethylphenyl)amino]propanoate

>  <casrn>
52888-49-0

>  <Molecular weight>
207.26889038085938

>  <guideline>
other: OECD Guideline 402 (Acute Dermal Toxicity)

>  <species>
rat

>  <type_of_coverage>
semiocclusive

>  <max_duration(hrs)>
24.0

>  <vehicle>
unchanged (no vehicle)

>  <edema/ erythema score>
0.0

>  <max_score>
4.0

>  <reversibility>
0.0

>  <Outcome>
0

>  <StandardizerResult>
Remove Explicit Hydrogens (ID: RemoveExplicitH)
Dearomatize (ID: Dearomatize)
Clear Stereo (ID: ClearStereo)
Wedge Clean (ID: WedgeClean)
Mesomerize (ID: Mesomerize)
Tautomerize (ID: Tautomerize)
Aromatize (ID: Aromatize)
Add Explicit Hydrogens (ID: AddExplicitH)
Neutralize (ID: Neutralize)
Clean 2D (ID: Clean2D)


$$$$

  Mrv1812 02121911042D          

 74 76  0  0  0  0            999 V2000
    3.7346   -1.8868    0.0000 C   0  0  0  0  0  0  0  0  0  0  0  0
    3.4525   -2.6621    0.0000 C   0  0  0  0  0  0  0  0  0  0  0  0
    4.2649   -2.8053    0.0000 C   0  0  0  0  0  0  0  0  0  0  0  0
    2.7380   -2.2496    0.0000 C   0  0  0  0  0  0  0  0  0  0  0  0
    2.0235   -2.6621    0.0000 C   0  0  0  0  0  0  0  0  0  0  0  0
    2.0235   -3.4871    0.0000 C   0  0  0  0  0  0  0  0  0  0  0  0
    2.7380   -3.8996    0.0000 C   0  0  0  0  0  0  0  0  0  0  0  0
    2.2077   -4.5316    0.0000 C   0  0  0  0  0  0  0  0  0  0  0  0
    3.2683   -4.5316    0.0000 C   0  0  0  0  0  0  0  0  0  0  0  0
    3.4525   -3.4871    0.0000 N   0  0  0  0  0  0  0  0  0  0  0  0
    1.3091   -2.2496    0.0000 N   0  0  0  0  0  0  0  0  0  0  0  0
    0.5946   -2.6621    0.0000 C   0  0  0  0  0  0  0  0  0  0  0  0
    0.5946   -3.4871    0.0000 O   0  0  0  0  0  0  0  0  0  0  0  0
   -0.1199   -2.2496    0.0000 C   0  0  0  0  0  0  0  0  0  0  0  0
   -0.1199   -1.4246    0.0000 C   0  0  0  0  0  0  0  0  0  0  0  0
   -0.8344   -1.0121    0.0000 C   0  0  0  0  0  0  0  0  0  0  0  0
   -1.5488   -1.4246    0.0000 C   0  0  0  0  0  0  0  0  0  0  0  0
   -1.5488   -2.2496    0.0000 C   0  0  0  0  0  0  0  0  0  0  0  0
   -0.8344   -2.6621    0.0000 C   0  0  0  0  0  0  0  0  0  0  0  0
   -2.2633   -2.6621    0.0000 C   0  0  0  0  0  0  0  0  0  0  0  0
   -2.2633   -3.4871    0.0000 O   0  0  0  0  0  0  0  0  0  0  0  0
   -2.9778   -2.2496    0.0000 N   0  0  0  0  0  0  0  0  0  0  0  0
   -3.6922   -2.6621    0.0000 C   0  0  0  0  0  0  0  0  0  0  0  0
   -4.4067   -2.2496    0.0000 C   0  0  0  0  0  0  0  0  0  0  0  0
   -5.1212   -2.6621    0.0000 C   0  0  0  0  0  0  0  0  0  0  0  0
   -5.4033   -1.8868    0.0000 C   0  0  0  0  0  0  0  0  0  0  0  0
   -5.9336   -2.8053    0.0000 C   0  0  0  0  0  0  0  0  0  0  0  0
   -5.1212   -3.4871    0.0000 N   0  0  0  0  0  0  0  0  0  0  0  0
   -4.4067   -3.8996    0.0000 C   0  0  0  0  0  0  0  0  0  0  0  0
   -4.9370   -4.5316    0.0000 C   0  0  0  0  0  0  0  0  0  0  0  0
   -3.8764   -4.5316    0.0000 C   0  0  0  0  0  0  0  0  0  0  0  0
   -3.6922   -3.4871    0.0000 C   0  0  0  0  0  0  0  0  0  0  0  0
    4.5099   -2.1690    0.0000 H   0  0  0  0  0  0  0  0  0  0  0  0
    4.0168   -1.1116    0.0000 H   0  0  0  0  0  0  0  0  0  0  0  0
    2.9594   -1.6047    0.0000 H   0  0  0  0  0  0  0  0  0  0  0  0
    3.7886   -3.4789    0.0000 H   0  0  0  0  0  0  0  0  0  0  0  0
    4.6709   -3.5236    0.0000 H   0  0  0  0  0  0  0  0  0  0  0  0
    5.0877   -2.7448    0.0000 H   0  0  0  0  0  0  0  0  0  0  0  0
    2.1012   -1.7251    0.0000 H   0  0  0  0  0  0  0  0  0  0  0  0
    2.7380   -3.0746    0.0000 H   0  0  0  0  0  0  0  0  0  0  0  0
    1.3091   -3.0746    0.0000 H   0  0  0  0  0  0  0  0  0  0  0  0
    1.3915   -4.0174    0.0000 H   0  0  0  0  0  0  0  0  0  0  0  0
    1.8803   -4.2995    0.0000 H   0  0  0  0  0  0  0  0  0  0  0  0
    1.5185   -4.9850    0.0000 H   0  0  0  0  0  0  0  0  0  0  0  0
    2.3353   -5.3466    0.0000 H   0  0  0  0  0  0  0  0  0  0  0  0
    3.0025   -4.7528    0.0000 H   0  0  0  0  0  0  0  0  0  0  0  0
    3.5140   -5.3191    0.0000 H   0  0  0  0  0  0  0  0  0  0  0  0
    4.0900   -4.6051    0.0000 H   0  0  0  0  0  0  0  0  0  0  0  0
    3.6500   -3.8002    0.0000 H   0  0  0  0  0  0  0  0  0  0  0  0
    3.2546   -4.2880    0.0000 H   0  0  0  0  0  0  0  0  0  0  0  0
    0.8749   -1.5481    0.0000 H   0  0  0  0  0  0  0  0  0  0  0  0
    0.5946   -1.0121    0.0000 H   0  0  0  0  0  0  0  0  0  0  0  0
   -0.8344   -0.1871    0.0000 H   0  0  0  0  0  0  0  0  0  0  0  0
   -2.2633   -1.0121    0.0000 H   0  0  0  0  0  0  0  0  0  0  0  0
   -0.8344   -3.4871    0.0000 H   0  0  0  0  0  0  0  0  0  0  0  0
   -2.9778   -1.4246    0.0000 H   0  0  0  0  0  0  0  0  0  0  0  0
   -3.6922   -1.8371    0.0000 H   0  0  0  0  0  0  0  0  0  0  0  0
   -4.5500   -1.4371    0.0000 H   0  0  0  0  0  0  0  0  0  0  0  0
   -5.0387   -1.7193    0.0000 H   0  0  0  0  0  0  0  0  0  0  0  0
   -5.4514   -1.0632    0.0000 H   0  0  0  0  0  0  0  0  0  0  0  0
   -6.1730   -1.5898    0.0000 H   0  0  0  0  0  0  0  0  0  0  0  0
   -5.9923   -2.4645    0.0000 H   0  0  0  0  0  0  0  0  0  0  0  0
   -6.7385   -2.6243    0.0000 H   0  0  0  0  0  0  0  0  0  0  0  0
   -6.4082   -3.4802    0.0000 H   0  0  0  0  0  0  0  0  0  0  0  0
   -5.4911   -3.5016    0.0000 H   0  0  0  0  0  0  0  0  0  0  0  0
   -5.3190   -4.2880    0.0000 H   0  0  0  0  0  0  0  0  0  0  0  0
   -5.6280   -4.9822    0.0000 H   0  0  0  0  0  0  0  0  0  0  0  0
   -4.8116   -5.3470    0.0000 H   0  0  0  0  0  0  0  0  0  0  0  0
   -4.1425   -4.7538    0.0000 H   0  0  0  0  0  0  0  0  0  0  0  0
   -3.6297   -5.3188    0.0000 H   0  0  0  0  0  0  0  0  0  0  0  0
   -3.0546   -4.6044    0.0000 H   0  0  0  0  0  0  0  0  0  0  0  0
   -3.4951   -3.8000    0.0000 H   0  0  0  0  0  0  0  0  0  0  0  0
   -2.8996   -3.2582    0.0000 H   0  0  0  0  0  0  0  0  0  0  0  0
   -4.4067   -3.0746    0.0000 H   0  0  0  0  0  0  0  0  0  0  0  0
  1  2  1  0  0  0  0
  2  3  1  0  0  0  0
  4  2  1  0  0  0  0
  5  4  1  0  0  0  0
  6  5  1  0  0  0  0
  7  6  1  0  0  0  0
  7  8  1  0  0  0  0
  7  9  1  0  0  0  0
 10  7  1  0  0  0  0
  5 11  1  0  0  0  0
 11 12  1  0  0  0  0
 12 13  2  0  0  0  0
 12 14  1  0  0  0  0
 15 14  4  0  0  0  0
 16 15  4  0  0  0  0
 17 16  4  0  0  0  0
 18 17  4  0  0  0  0
 19 18  4  0  0  0  0
 18 20  1  0  0  0  0
 20 21  2  0  0  0  0
 20 22  1  0  0  0  0
 22 23  1  0  0  0  0
 24 23  1  0  0  0  0
 25 24  1  0  0  0  0
 25 26  1  0  0  0  0
 25 27  1  0  0  0  0
 28 25  1  0  0  0  0
 29 28  1  0  0  0  0
 29 30  1  0  0  0  0
 29 31  1  0  0  0  0
 32 29  1  0  0  0  0
  2 10  1  0  0  0  0
 14 19  4  0  0  0  0
 23 32  1  0  0  0  0
  1 33  1  0  0  0  0
  1 34  1  0  0  0  0
  1 35  1  0  0  0  0
  3 36  1  0  0  0  0
  3 37  1  0  0  0  0
  3 38  1  0  0  0  0
  4 39  1  0  0  0  0
  4 40  1  0  0  0  0
  5 41  1  0  0  0  0
  6 42  1  0  0  0  0
  6 43  1  0  0  0  0
  8 44  1  0  0  0  0
  8 45  1  0  0  0  0
  8 46  1  0  0  0  0
  9 47  1  0  0  0  0
  9 48  1  0  0  0  0
  9 49  1  0  0  0  0
 10 50  1  0  0  0  0
 11 51  1  0  0  0  0
 15 52  1  0  0  0  0
 16 53  1  0  0  0  0
 17 54  1  0  0  0  0
 19 55  1  0  0  0  0
 22 56  1  0  0  0  0
 23 57  1  0  0  0  0
 24 58  1  0  0  0  0
 24 59  1  0  0  0  0
 26 60  1  0  0  0  0
 26 61  1  0  0  0  0
 26 62  1  0  0  0  0
 27 63  1  0  0  0  0
 27 64  1  0  0  0  0
 27 65  1  0  0  0  0
 28 66  1  0  0  0  0
 30 67  1  0  0  0  0
 30 68  1  0  0  0  0
 30 69  1  0  0  0  0
 31 70  1  0  0  0  0
 31 71  1  0  0  0  0
 31 72  1  0  0  0  0
 32 73  1  0  0  0  0
 32 74  1  0  0  0  0
M  END
>  <id_input>
1859

>  <InChIKey>
OYNOCRWQLLIRON-UHFFFAOYSA-N

>  <substance_name>
1-N,3-N-bis(2,2,6,6-tetramethylpiperidin-4-yl)benzene-1,3-dicarboxamide

>  <casrn>
42774-15-2

>  <Molecular weight>
442.6372985839844

>  <guideline>
OECD Guideline 404 (Acute Dermal Irritation / Corrosion)

>  <species>
rabbit

>  <type_of_coverage>
semiocclusive

>  <max_duration(hrs)>
4.0

>  <vehicle>
water

>  <edema/ erythema score>
0.1075

>  <max_score>
4.0

>  <reversibility>
0.0

>  <Outcome>
0

>  <StandardizerResult>
Remove Explicit Hydrogens (ID: RemoveExplicitH)
Dearomatize (ID: Dearomatize)
Clear Stereo (ID: ClearStereo)
Wedge Clean (ID: WedgeClean)
Mesomerize (ID: Mesomerize)
Tautomerize (ID: Tautomerize)
Aromatize (ID: Aromatize)
Add Explicit Hydrogens (ID: AddExplicitH)
Neutralize (ID: Neutralize)
Clean 2D (ID: Clean2D)


$$$$

  Mrv1812 02121911042D          

 27 28  0  0  0  0            999 V2000
   -2.2394   -1.6410    0.0000 C   0  0  0  0  0  0  0  0  0  0  0  0
   -1.5249   -1.2285    0.0000 C   0  0  0  0  0  0  0  0  0  0  0  0
   -1.5249   -0.4035    0.0000 C   0  0  0  0  0  0  0  0  0  0  0  0
   -0.8104    0.0090    0.0000 O   0  0  0  0  0  0  0  0  0  0  0  0
   -0.0960   -0.4035    0.0000 C   0  0  0  0  0  0  0  0  0  0  0  0
    0.6185    0.0090    0.0000 C   0  0  0  0  0  0  0  0  0  0  0  0
    1.3330   -0.4035    0.0000 C   0  0  0  0  0  0  0  0  0  0  0  0
    1.3330   -1.2285    0.0000 C   0  0  0  0  0  0  0  0  0  0  0  0
    0.6185   -1.6410    0.0000 C   0  0  0  0  0  0  0  0  0  0  0  0
   -0.0960   -1.2285    0.0000 C   0  0  0  0  0  0  0  0  0  0  0  0
   -0.8104   -1.6410    0.0000 N   0  0  0  0  0  0  0  0  0  0  0  0
   -0.8104   -2.4660    0.0000 C   0  0  0  0  0  0  0  0  0  0  0  0
   -0.0960   -2.8785    0.0000 O   0  0  0  0  0  0  0  0  0  0  0  0
   -1.5249   -2.8785    0.0000 C   0  0  0  0  0  0  0  0  0  0  0  0
   -1.5249   -3.7035    0.0000 Cl  0  0  0  0  0  0  0  0  0  0  0  0
   -2.2394   -2.4660    0.0000 Cl  0  0  0  0  0  0  0  0  0  0  0  0
   -2.2394   -0.8160    0.0000 H   0  0  0  0  0  0  0  0  0  0  0  0
   -2.9539   -1.2285    0.0000 H   0  0  0  0  0  0  0  0  0  0  0  0
   -2.9539   -2.0535    0.0000 H   0  0  0  0  0  0  0  0  0  0  0  0
   -0.8104   -0.8160    0.0000 H   0  0  0  0  0  0  0  0  0  0  0  0
   -1.6682    0.4090    0.0000 H   0  0  0  0  0  0  0  0  0  0  0  0
   -2.1569    0.1268    0.0000 H   0  0  0  0  0  0  0  0  0  0  0  0
    0.6185    0.8340    0.0000 H   0  0  0  0  0  0  0  0  0  0  0  0
    2.0474    0.0090    0.0000 H   0  0  0  0  0  0  0  0  0  0  0  0
    2.0474   -1.6410    0.0000 H   0  0  0  0  0  0  0  0  0  0  0  0
    0.6185   -2.4660    0.0000 H   0  0  0  0  0  0  0  0  0  0  0  0
   -0.8104   -3.2910    0.0000 H   0  0  0  0  0  0  0  0  0  0  0  0
  1  2  1  0  0  0  0
  3  2  1  0  0  0  0
  4  3  1  0  0  0  0
  5  4  1  0  0  0  0
  5  6  4  0  0  0  0
  6  7  4  0  0  0  0
  7  8  4  0  0  0  0
  8  9  4  0  0  0  0
  9 10  4  0  0  0  0
 11 10  1  0  0  0  0
 11 12  1  0  0  0  0
 12 13  2  0  0  0  0
 12 14  1  0  0  0  0
 14 15  1  0  0  0  0
 14 16  1  0  0  0  0
  2 11  1  0  0  0  0
 10  5  4  0  0  0  0
  1 17  1  0  0  0  0
  1 18  1  0  0  0  0
  1 19  1  0  0  0  0
  2 20  1  0  0  0  0
  3 21  1  0  0  0  0
  3 22  1  0  0  0  0
  6 23  1  0  0  0  0
  7 24  1  0  0  0  0
  8 25  1  0  0  0  0
  9 26  1  0  0  0  0
 14 27  1  0  0  0  0
M  END
>  <id_input>
372

>  <InChIKey>
PFJJMJDEVDLPNE-UHFFFAOYSA-N

>  <substance_name>
-

>  <casrn>
98730-04-2

>  <Molecular weight>
260.1165466308594

>  <guideline>
OECD Guideline 404 (Acute Dermal Irritation / Corrosion)

>  <species>
rabbit

>  <type_of_coverage>
occlusive

>  <max_duration(hrs)>
4.0

>  <vehicle>
water

>  <edema/ erythema score>
0.0

>  <max_score>
4.0

>  <reversibility>
0.0

>  <Outcome>
0

>  <StandardizerResult>
Remove Explicit Hydrogens (ID: RemoveExplicitH)
Dearomatize (ID: Dearomatize)
Clear Stereo (ID: ClearStereo)
Wedge Clean (ID: WedgeClean)
Mesomerize (ID: Mesomerize)
Tautomerize (ID: Tautomerize)
Aromatize (ID: Aromatize)
Add Explicit Hydrogens (ID: AddExplicitH)
Neutralize (ID: Neutralize)
Clean 2D (ID: Clean2D)


$$$$

  Mrv1812 02121911042D          

 19 19  0  0  0  0            999 V2000
    3.4957   -0.1083    0.0000 O   0  0  0  0  0  0  0  0  0  0  0  0
    2.7813    0.3042    0.0000 C   0  0  0  0  0  0  0  0  0  0  0  0
    2.7813    1.1292    0.0000 O   0  0  0  0  0  0  0  0  0  0  0  0
    2.0668   -0.1083    0.0000 C   0  0  0  0  0  0  0  0  0  0  0  0
    1.3523    0.3042    0.0000 O   0  0  0  0  0  0  0  0  0  0  0  0
    0.6378   -0.1083    0.0000 C   0  0  0  0  0  0  0  0  0  0  0  0
   -0.0766    0.3042    0.0000 C   0  0  0  0  0  0  0  0  0  0  0  0
   -0.7911   -0.1083    0.0000 C   0  0  0  0  0  0  0  0  0  0  0  0
   -0.7911   -0.9333    0.0000 C   0  0  0  0  0  0  0  0  0  0  0  0
   -0.0766   -1.3458    0.0000 C   0  0  0  0  0  0  0  0  0  0  0  0
   -0.0766   -2.1708    0.0000 Cl  0  0  0  0  0  0  0  0  0  0  0  0
    0.6378   -0.9333    0.0000 C   0  0  0  0  0  0  0  0  0  0  0  0
    1.3523   -1.3458    0.0000 Cl  0  0  0  0  0  0  0  0  0  0  0  0
    3.4957   -0.9333    0.0000 H   0  0  0  0  0  0  0  0  0  0  0  0
    1.6965   -0.8455    0.0000 H   0  0  0  0  0  0  0  0  0  0  0  0
    2.4370   -0.8455    0.0000 H   0  0  0  0  0  0  0  0  0  0  0  0
   -0.0766    1.1292    0.0000 H   0  0  0  0  0  0  0  0  0  0  0  0
   -1.5056    0.3042    0.0000 H   0  0  0  0  0  0  0  0  0  0  0  0
   -1.5056   -1.3458    0.0000 H   0  0  0  0  0  0  0  0  0  0  0  0
  1  2  1  0  0  0  0
  2  3  2  0  0  0  0
  2  4  1  0  0  0  0
  4  5  1  0  0  0  0
  5  6  1  0  0  0  0
  7  6  4  0  0  0  0
  8  7  4  0  0  0  0
  9  8  4  0  0  0  0
 10  9  4  0  0  0  0
 10 11  1  0  0  0  0
 12 10  4  0  0  0  0
 12 13  1  0  0  0  0
  6 12  4  0  0  0  0
  1 14  1  0  0  0  0
  4 15  1  0  0  0  0
  4 16  1  0  0  0  0
  7 17  1  0  0  0  0
  8 18  1  0  0  0  0
  9 19  1  0  0  0  0
M  END
>  <id_input>
2173

>  <InChIKey>
RBJIGQRZLITQJG-UHFFFAOYSA-N

>  <substance_name>
2-(2,3-dichlorophenoxy)acetic acid

>  <casrn>
2976-74-1

>  <Molecular weight>
221.03744506835938

>  <guideline>
OECD Guideline 404 (Acute Dermal Irritation / Corrosion)

>  <species>
rabbit

>  <type_of_coverage>
occlusive

>  <max_duration(hrs)>
4.0

>  <vehicle>
unchanged (no vehicle)

>  <edema/ erythema score>
0.33

>  <max_score>
0.33

>  <reversibility>
0.0

>  <Outcome>
0

>  <StandardizerResult>
Remove Explicit Hydrogens (ID: RemoveExplicitH)
Dearomatize (ID: Dearomatize)
Clear Stereo (ID: ClearStereo)
Wedge Clean (ID: WedgeClean)
Mesomerize (ID: Mesomerize)
Tautomerize (ID: Tautomerize)
Aromatize (ID: Aromatize)
Add Explicit Hydrogens (ID: AddExplicitH)
Neutralize (ID: Neutralize)
Clean 2D (ID: Clean2D)


$$$$

  Mrv1812 02121911042D          

 28 28  0  0  0  0            999 V2000
   -4.2871   -0.4154    0.0000 C   0  0  0  0  0  0  0  0  0  0  0  0
   -3.5726   -0.8279    0.0000 O   0  0  0  0  0  0  0  0  0  0  0  0
   -2.8582   -0.4154    0.0000 C   0  0  0  0  0  0  0  0  0  0  0  0
   -2.1437   -0.8279    0.0000 C   0  0  0  0  0  0  0  0  0  0  0  0
   -1.4292   -0.4154    0.0000 C   0  0  0  0  0  0  0  0  0  0  0  0
   -1.4292    0.4096    0.0000 C   0  0  0  0  0  0  0  0  0  0  0  0
   -0.7148    0.8221    0.0000 N   0  0  0  0  0  0  0  0  0  0  0  0
   -0.0003    0.4096    0.0000 C   0  0  0  0  0  0  0  0  0  0  0  0
   -0.0003   -0.4154    0.0000 O   0  0  0  0  0  0  0  0  0  0  0  0
    0.7142    0.8221    0.0000 C   0  0  0  0  0  0  0  0  0  0  0  0
    1.4287    0.4096    0.0000 C   0  0  0  0  0  0  0  0  0  0  0  0
    2.1431    0.8221    0.0000 C   0  0  0  0  0  0  0  0  0  0  0  0
    1.4287   -0.4154    0.0000 O   0  0  0  0  0  0  0  0  0  0  0  0
   -2.1437    0.8221    0.0000 C   0  0  0  0  0  0  0  0  0  0  0  0
   -2.8582    0.4096    0.0000 C   0  0  0  0  0  0  0  0  0  0  0  0
   -3.8746    0.2990    0.0000 H   0  0  0  0  0  0  0  0  0  0  0  0
   -5.0016   -0.0029    0.0000 H   0  0  0  0  0  0  0  0  0  0  0  0
   -4.6996   -1.1299    0.0000 H   0  0  0  0  0  0  0  0  0  0  0  0
   -2.1437   -1.6529    0.0000 H   0  0  0  0  0  0  0  0  0  0  0  0
   -0.7148   -0.8279    0.0000 H   0  0  0  0  0  0  0  0  0  0  0  0
   -0.7148    1.6471    0.0000 H   0  0  0  0  0  0  0  0  0  0  0  0
    1.0844    1.5593    0.0000 H   0  0  0  0  0  0  0  0  0  0  0  0
    0.3439    1.5593    0.0000 H   0  0  0  0  0  0  0  0  0  0  0  0
    2.5556    0.1076    0.0000 H   0  0  0  0  0  0  0  0  0  0  0  0
    2.8576    1.2346    0.0000 H   0  0  0  0  0  0  0  0  0  0  0  0
    1.7306    1.5365    0.0000 H   0  0  0  0  0  0  0  0  0  0  0  0
   -2.1437    1.6471    0.0000 H   0  0  0  0  0  0  0  0  0  0  0  0
   -3.5726    0.8221    0.0000 H   0  0  0  0  0  0  0  0  0  0  0  0
  1  2  1  0  0  0  0
  2  3  1  0  0  0  0
  4  3  4  0  0  0  0
  5  4  4  0  0  0  0
  6  5  4  0  0  0  0
  6  7  1  0  0  0  0
  7  8  1  0  0  0  0
  8  9  2  0  0  0  0
  8 10  1  0  0  0  0
 10 11  1  0  0  0  0
 11 12  1  0  0  0  0
 11 13  2  0  0  0  0
 14  6  4  0  0  0  0
 15 14  4  0  0  0  0
  3 15  4  0  0  0  0
  1 16  1  0  0  0  0
  1 17  1  0  0  0  0
  1 18  1  0  0  0  0
  4 19  1  0  0  0  0
  5 20  1  0  0  0  0
  7 21  1  0  0  0  0
 10 22  1  0  0  0  0
 10 23  1  0  0  0  0
 12 24  1  0  0  0  0
 12 25  1  0  0  0  0
 12 26  1  0  0  0  0
 14 27  1  0  0  0  0
 15 28  1  0  0  0  0
M  END
>  <id_input>
3457

>  <InChIKey>
SWAJJKROCOJICG-UHFFFAOYSA-N

>  <substance_name>
N-(4-methoxyphenyl)-3-oxobutanamide

>  <casrn>
5437-98-9

>  <Molecular weight>
207.225830078125

>  <guideline>
OECD Guideline 404 (Acute Dermal Irritation / Corrosion)

>  <species>
rabbit

>  <type_of_coverage>
semiocclusive

>  <max_duration(hrs)>
4.0

>  <vehicle>
not specified

>  <edema/ erythema score>
0.0

>  <max_score>
4.0

>  <reversibility>
0.0

>  <Outcome>
0

>  <StandardizerResult>
Remove Explicit Hydrogens (ID: RemoveExplicitH)
Dearomatize (ID: Dearomatize)
Clear Stereo (ID: ClearStereo)
Wedge Clean (ID: WedgeClean)
Mesomerize (ID: Mesomerize)
Tautomerize (ID: Tautomerize)
Aromatize (ID: Aromatize)
Add Explicit Hydrogens (ID: AddExplicitH)
Neutralize (ID: Neutralize)
Clean 2D (ID: Clean2D)


$$$$

  Mrv1812 02121911042D          

 27 29  0  0  0  0            999 V2000
   -2.1466    0.7695    0.0000 C   0  0  0  0  0  0  0  0  0  0  0  0
   -2.1466   -0.0555    0.0000 C   0  0  0  0  0  0  0  0  0  0  0  0
   -1.4322   -0.4680    0.0000 C   0  0  0  0  0  0  0  0  0  0  0  0
   -0.7177   -0.0555    0.0000 C   0  0  0  0  0  0  0  0  0  0  0  0
   -0.0032   -0.4680    0.0000 C   0  0  0  0  0  0  0  0  0  0  0  0
    0.7112   -0.0555    0.0000 C   0  0  0  0  0  0  0  0  0  0  0  0
    0.7112    0.7695    0.0000 C   0  0  0  0  0  0  0  0  0  0  0  0
   -0.0032    1.1820    0.0000 C   0  0  0  0  0  0  0  0  0  0  0  0
   -0.7177    0.7695    0.0000 C   0  0  0  0  0  0  0  0  0  0  0  0
   -1.4322    1.1820    0.0000 C   0  0  0  0  0  0  0  0  0  0  0  0
   -1.4322    2.0070    0.0000 C   0  0  0  0  0  0  0  0  0  0  0  0
   -2.1466    2.4195    0.0000 O   0  0  0  0  0  0  0  0  0  0  0  0
   -0.7177    2.4195    0.0000 O   0  0  0  0  0  0  0  0  0  0  0  0
   -0.0032    2.0070    0.0000 C   0  0  0  0  0  0  0  0  0  0  0  0
    0.7112    2.4195    0.0000 O   0  0  0  0  0  0  0  0  0  0  0  0
   -0.0032   -1.2930    0.0000 C   0  0  0  0  0  0  0  0  0  0  0  0
    0.7112   -1.7055    0.0000 O   0  0  0  0  0  0  0  0  0  0  0  0
   -0.7177   -1.7055    0.0000 O   0  0  0  0  0  0  0  0  0  0  0  0
   -1.4322   -1.2930    0.0000 C   0  0  0  0  0  0  0  0  0  0  0  0
   -1.0966   -2.0467    0.0000 O   0  0  0  0  0  0  0  0  0  0  0  0
   -2.1466   -1.7055    0.0000 O   0  0  0  0  0  0  0  0  0  0  0  0
   -2.8611    1.1820    0.0000 H   0  0  0  0  0  0  0  0  0  0  0  0
   -2.8611   -0.4680    0.0000 H   0  0  0  0  0  0  0  0  0  0  0  0
    1.4257   -0.4680    0.0000 H   0  0  0  0  0  0  0  0  0  0  0  0
    1.4257    1.1820    0.0000 H   0  0  0  0  0  0  0  0  0  0  0  0
   -0.2328   -2.3730    0.0000 H   0  0  0  0  0  0  0  0  0  0  0  0
   -2.8611   -1.2930    0.0000 H   0  0  0  0  0  0  0  0  0  0  0  0
  2  1  4  0  0  0  0
  3  2  4  0  0  0  0
  4  3  4  0  0  0  0
  4  5  4  0  0  0  0
  5  6  4  0  0  0  0
  6  7  4  0  0  0  0
  7  8  4  0  0  0  0
  8  9  4  0  0  0  0
  9 10  4  0  0  0  0
 10 11  1  0  0  0  0
 11 12  2  0  0  0  0
 11 13  1  0  0  0  0
 13 14  1  0  0  0  0
 14 15  2  0  0  0  0
  5 16  1  0  0  0  0
 16 17  2  0  0  0  0
 16 18  1  0  0  0  0
  3 19  1  0  0  0  0
 19 20  2  0  0  0  0
 19 21  1  0  0  0  0
  1 10  4  0  0  0  0
  9  4  4  0  0  0  0
 14  8  1  0  0  0  0
  1 22  1  0  0  0  0
  2 23  1  0  0  0  0
  6 24  1  0  0  0  0
  7 25  1  0  0  0  0
 18 26  1  0  0  0  0
 21 27  1  0  0  0  0
M  END
>  <id_input>
399

>  <InChIKey>
YQXRNSHBINARCY-UHFFFAOYSA-N

>  <substance_name>
-

>  <casrn>
52671-72-4

>  <Molecular weight>
286.1932373046875

>  <guideline>
OECD Guideline 404 (Acute Dermal Irritation / Corrosion)

>  <species>
rabbit

>  <type_of_coverage>
semiocclusive

>  <max_duration(hrs)>
4.0

>  <vehicle>
physiological saline

>  <edema/ erythema score>
0.0

>  <max_score>
4.0

>  <reversibility>
0.0

>  <Outcome>
0

>  <StandardizerResult>
Remove Explicit Hydrogens (ID: RemoveExplicitH)
Dearomatize (ID: Dearomatize)
Clear Stereo (ID: ClearStereo)
Wedge Clean (ID: WedgeClean)
Mesomerize (ID: Mesomerize)
Tautomerize (ID: Tautomerize)
Aromatize (ID: Aromatize)
Add Explicit Hydrogens (ID: AddExplicitH)
Neutralize (ID: Neutralize)
Clean 2D (ID: Clean2D)


$$$$

  Mrv1812 02121911042D          

 22 23  0  0  0  0            999 V2000
   -2.3383   -0.8691    0.0000 O   0  0  0  0  0  0  0  0  0  0  0  0
   -1.6238   -0.4566    0.0000 C   0  0  0  0  0  0  0  0  0  0  0  0
   -1.6238    0.3684    0.0000 O   0  0  0  0  0  0  0  0  0  0  0  0
   -0.9093   -0.8691    0.0000 C   0  0  0  0  0  0  0  0  0  0  0  0
   -0.1949   -0.4566    0.0000 C   0  0  0  0  0  0  0  0  0  0  0  0
    0.5196   -0.8691    0.0000 C   0  0  0  0  0  0  0  0  0  0  0  0
    1.2341   -0.4566    0.0000 C   0  0  0  0  0  0  0  0  0  0  0  0
    1.9486   -0.8691    0.0000 C   0  0  0  0  0  0  0  0  0  0  0  0
    1.9486   -1.6941    0.0000 C   0  0  0  0  0  0  0  0  0  0  0  0
    1.2341   -2.1066    0.0000 C   0  0  0  0  0  0  0  0  0  0  0  0
    0.5196   -1.6941    0.0000 C   0  0  0  0  0  0  0  0  0  0  0  0
   -0.1949   -2.1066    0.0000 C   0  0  0  0  0  0  0  0  0  0  0  0
   -0.9093   -1.6941    0.0000 C   0  0  0  0  0  0  0  0  0  0  0  0
   -1.6238   -2.1066    0.0000 O   0  0  0  0  0  0  0  0  0  0  0  0
   -3.0527   -0.4566    0.0000 H   0  0  0  0  0  0  0  0  0  0  0  0
   -0.1949    0.3684    0.0000 H   0  0  0  0  0  0  0  0  0  0  0  0
    1.2341    0.3684    0.0000 H   0  0  0  0  0  0  0  0  0  0  0  0
    2.6630   -0.4566    0.0000 H   0  0  0  0  0  0  0  0  0  0  0  0
    2.6630   -2.1066    0.0000 H   0  0  0  0  0  0  0  0  0  0  0  0
    1.2341   -2.9316    0.0000 H   0  0  0  0  0  0  0  0  0  0  0  0
   -0.1949   -2.9316    0.0000 H   0  0  0  0  0  0  0  0  0  0  0  0
   -2.3383   -1.6941    0.0000 H   0  0  0  0  0  0  0  0  0  0  0  0
  1  2  1  0  0  0  0
  2  3  2  0  0  0  0
  2  4  1  0  0  0  0
  5  4  4  0  0  0  0
  6  5  4  0  0  0  0
  6  7  4  0  0  0  0
  7  8  4  0  0  0  0
  8  9  4  0  0  0  0
  9 10  4  0  0  0  0
 10 11  4  0  0  0  0
 12 11  4  0  0  0  0
 13 12  4  0  0  0  0
 13 14  1  0  0  0  0
  4 13  4  0  0  0  0
 11  6  4  0  0  0  0
  1 15  1  0  0  0  0
  5 16  1  0  0  0  0
  7 17  1  0  0  0  0
  8 18  1  0  0  0  0
  9 19  1  0  0  0  0
 10 20  1  0  0  0  0
 12 21  1  0  0  0  0
 14 22  1  0  0  0  0
M  END
>  <id_input>
2751

>  <InChIKey>
ALKYHXVLJMQRLQ-UHFFFAOYSA-N

>  <substance_name>
3-hydroxynaphthalene-2-carboxylic acid

>  <casrn>
92-70-6

>  <Molecular weight>
188.17942810058594

>  <guideline>
OECD Guideline 404 (Acute Dermal Irritation / Corrosion)

>  <species>
rabbit

>  <type_of_coverage>
semiocclusive

>  <max_duration(hrs)>
4.0

>  <vehicle>
other: polyethylene glycol 400

>  <edema/ erythema score>
0.3

>  <max_score>
4.0

>  <reversibility>
0.0

>  <Outcome>
0

>  <StandardizerResult>
Remove Explicit Hydrogens (ID: RemoveExplicitH)
Dearomatize (ID: Dearomatize)
Clear Stereo (ID: ClearStereo)
Wedge Clean (ID: WedgeClean)
Mesomerize (ID: Mesomerize)
Tautomerize (ID: Tautomerize)
Aromatize (ID: Aromatize)
Add Explicit Hydrogens (ID: AddExplicitH)
Neutralize (ID: Neutralize)
Clean 2D (ID: Clean2D)


$$$$

  Mrv1812 02121911042D          

 24 25  0  0  0  0            999 V2000
   -3.0164   -2.3459    0.0000 Cl  0  0  0  0  0  0  0  0  0  0  0  0
   -2.6039   -1.6314    0.0000 C   0  0  0  0  0  0  0  0  0  0  0  0
   -1.8894   -2.0439    0.0000 Cl  0  0  0  0  0  0  0  0  0  0  0  0
   -3.3184   -1.2189    0.0000 Cl  0  0  0  0  0  0  0  0  0  0  0  0
   -2.1914   -0.9170    0.0000 S   0  0  0  0  0  0  0  0  0  0  0  0
   -1.3664   -0.9170    0.0000 N   0  0  0  0  0  0  0  0  0  0  0  0
   -0.8815   -0.2495    0.0000 C   0  0  0  0  0  0  0  0  0  0  0  0
   -1.1364    0.5351    0.0000 O   0  0  0  0  0  0  0  0  0  0  0  0
   -0.0968   -0.5045    0.0000 C   0  0  0  0  0  0  0  0  0  0  0  0
    0.6176   -0.0920    0.0000 C   0  0  0  0  0  0  0  0  0  0  0  0
    1.3321   -0.5045    0.0000 C   0  0  0  0  0  0  0  0  0  0  0  0
    1.3321   -1.3295    0.0000 C   0  0  0  0  0  0  0  0  0  0  0  0
    0.6176   -1.7420    0.0000 C   0  0  0  0  0  0  0  0  0  0  0  0
   -0.0968   -1.3295    0.0000 C   0  0  0  0  0  0  0  0  0  0  0  0
   -0.8815   -1.5844    0.0000 C   0  0  0  0  0  0  0  0  0  0  0  0
   -1.1364   -2.3690    0.0000 O   0  0  0  0  0  0  0  0  0  0  0  0
   -0.1831    0.3160    0.0000 H   0  0  0  0  0  0  0  0  0  0  0  0
    1.2387    0.4511    0.0000 H   0  0  0  0  0  0  0  0  0  0  0  0
    0.7348    0.7247    0.0000 H   0  0  0  0  0  0  0  0  0  0  0  0
    2.1561   -0.4643    0.0000 H   0  0  0  0  0  0  0  0  0  0  0  0
    2.0466   -1.7420    0.0000 H   0  0  0  0  0  0  0  0  0  0  0  0
    0.2474   -2.4792    0.0000 H   0  0  0  0  0  0  0  0  0  0  0  0
    0.9879   -2.4792    0.0000 H   0  0  0  0  0  0  0  0  0  0  0  0
    0.6176   -0.9170    0.0000 H   0  0  0  0  0  0  0  0  0  0  0  0
  1  2  1  0  0  0  0
  2  3  1  0  0  0  0
  2  4  1  0  0  0  0
  2  5  1  0  0  0  0
  5  6  1  0  0  0  0
  7  6  1  0  0  0  0
  7  8  2  0  0  0  0
  9  7  1  0  0  0  0
  9 10  1  0  0  0  0
 10 11  1  0  0  0  0
 11 12  2  0  0  0  0
 12 13  1  0  0  0  0
 13 14  1  0  0  0  0
 15 14  1  0  0  0  0
 15 16  2  0  0  0  0
  6 15  1  0  0  0  0
 14  9  1  0  0  0  0
  9 17  1  0  0  0  0
 10 18  1  0  0  0  0
 10 19  1  0  0  0  0
 11 20  1  0  0  0  0
 12 21  1  0  0  0  0
 13 22  1  0  0  0  0
 13 23  1  0  0  0  0
 14 24  1  0  0  0  0
M  END
>  <id_input>
2349

>  <InChIKey>
LDVVMCZRFWMZSG-UHFFFAOYSA-N

>  <substance_name>
2-[(trichloromethyl)sulfanyl]-2,3,3a,4,7,7a-hexahydro-1H-isoindole-1,3-dione

>  <casrn>
133-06-2

>  <Molecular weight>
300.5893249511719

>  <guideline>
OECD Guideline 404 (Acute Dermal Irritation / Corrosion)

>  <species>
rabbit

>  <type_of_coverage>
semiocclusive

>  <max_duration(hrs)>
72.0

>  <vehicle>
water

>  <edema/ erythema score>
0.589230769230769

>  <max_score>
0.66

>  <reversibility>
0.0

>  <Outcome>
0

>  <StandardizerResult>
Remove Explicit Hydrogens (ID: RemoveExplicitH)
Clear Stereo (ID: ClearStereo)
Wedge Clean (ID: WedgeClean)
Mesomerize (ID: Mesomerize)
Tautomerize (ID: Tautomerize)
Add Explicit Hydrogens (ID: AddExplicitH)
Neutralize (ID: Neutralize)
Clean 2D (ID: Clean2D)


$$$$

  Mrv1812 02121911042D          

 19 19  0  0  0  0            999 V2000
    1.6269    0.9119    0.0000 C   0  0  0  0  0  0  0  0  0  0  0  0
    1.4554    0.1049    0.0000 C   0  0  0  0  0  0  0  0  0  0  0  0
    0.6708   -0.1500    0.0000 N   0  3  0  0  0  0  0  0  0  0  0  0
    0.0033    0.3349    0.0000 C   0  0  0  0  0  0  0  0  0  0  0  0
   -0.6641   -0.1500    0.0000 C   0  0  0  0  0  0  0  0  0  0  0  0
   -0.4092   -0.9346    0.0000 N   0  0  0  0  0  0  0  0  0  0  0  0
   -0.8941   -1.6021    0.0000 C   0  0  0  0  0  0  0  0  0  0  0  0
    0.4158   -0.9346    0.0000 C   0  0  0  0  0  0  0  0  0  0  0  0
    2.4339    0.7404    0.0000 H   0  0  0  0  0  0  0  0  0  0  0  0
    1.7984    1.7189    0.0000 H   0  0  0  0  0  0  0  0  0  0  0  0
    0.8199    1.0834    0.0000 H   0  0  0  0  0  0  0  0  0  0  0  0
    1.7555   -0.6635    0.0000 H   0  0  0  0  0  0  0  0  0  0  0  0
    2.2510   -0.1132    0.0000 H   0  0  0  0  0  0  0  0  0  0  0  0
    0.0033    1.1599    0.0000 H   0  0  0  0  0  0  0  0  0  0  0  0
   -1.4487    0.1049    0.0000 H   0  0  0  0  0  0  0  0  0  0  0  0
   -1.5615   -1.1171    0.0000 H   0  0  0  0  0  0  0  0  0  0  0  0
   -1.3790   -2.2695    0.0000 H   0  0  0  0  0  0  0  0  0  0  0  0
   -0.2267   -2.0870    0.0000 H   0  0  0  0  0  0  0  0  0  0  0  0
    0.9008   -1.6021    0.0000 H   0  0  0  0  0  0  0  0  0  0  0  0
  1  2  1  0  0  0  0
  2  3  1  0  0  0  0
  4  3  4  0  0  0  0
  5  4  4  0  0  0  0
  6  5  4  0  0  0  0
  6  7  1  0  0  0  0
  8  6  4  0  0  0  0
  3  8  4  0  0  0  0
  1  9  1  0  0  0  0
  1 10  1  0  0  0  0
  1 11  1  0  0  0  0
  2 12  1  0  0  0  0
  2 13  1  0  0  0  0
  4 14  1  0  0  0  0
  5 15  1  0  0  0  0
  7 16  1  0  0  0  0
  7 17  1  0  0  0  0
  7 18  1  0  0  0  0
  8 19  1  0  0  0  0
M  CHG  1   3   1
M  END
>  <id_input>
1319

>  <InChIKey>
NJMWOUFKYKNWDW-UHFFFAOYSA-N

>  <substance_name>
-

>  <casrn>
65039-09-0

>  <Molecular weight>
111.1649398803711

>  <guideline>
OECD Guideline 404 (Acute Dermal Irritation / Corrosion)

>  <species>
rabbit

>  <type_of_coverage>
semiocclusive

>  <max_duration(hrs)>
4.0

>  <vehicle>
unchanged (no vehicle)

>  <edema/ erythema score>
0.6

>  <max_score>
2.0

>  <reversibility>
0.0

>  <Outcome>
0

>  <StandardizerResult>
Remove Explicit Hydrogens (ID: RemoveExplicitH)
Dearomatize (ID: Dearomatize)
Clear Stereo (ID: ClearStereo)
Wedge Clean (ID: WedgeClean)
Mesomerize (ID: Mesomerize)
Tautomerize (ID: Tautomerize)
Aromatize (ID: Aromatize)
Add Explicit Hydrogens (ID: AddExplicitH)
Clean 2D (ID: Clean2D)


$$$$

  Mrv1812 02121911042D          

 45 45  0  0  0  0            999 V2000
   -1.6879   -1.9734    0.0000 C   0  0  0  0  0  0  0  0  0  0  0  0
   -0.9734   -1.5609    0.0000 C   0  0  0  0  0  0  0  0  0  0  0  0
   -0.2589   -1.9734    0.0000 C   0  0  0  0  0  0  0  0  0  0  0  0
    0.4556   -1.5609    0.0000 C   0  0  0  0  0  0  0  0  0  0  0  0
    1.1700   -1.9734    0.0000 C   0  0  0  0  0  0  0  0  0  0  0  0
    1.8845   -1.5609    0.0000 C   0  0  0  0  0  0  0  0  0  0  0  0
    2.5990   -1.9734    0.0000 C   0  0  0  0  0  0  0  0  0  0  0  0
    3.3134   -1.5609    0.0000 C   0  0  0  0  0  0  0  0  0  0  0  0
    4.0279   -1.9734    0.0000 C   0  0  0  0  0  0  0  0  0  0  0  0
    4.7424   -1.5609    0.0000 C   0  0  0  0  0  0  0  0  0  0  0  0
    4.7424   -0.7359    0.0000 O   0  0  0  0  0  0  0  0  0  0  0  0
    5.4569   -1.9734    0.0000 O   0  0  0  0  0  0  0  0  0  0  0  0
    6.1713   -1.5609    0.0000 C   0  0  0  0  0  0  0  0  0  0  0  0
    6.8858   -1.9734    0.0000 C   0  0  0  0  0  0  0  0  0  0  0  0
    7.6003   -1.5609    0.0000 C   0  0  0  0  0  0  0  0  0  0  0  0
    7.6003   -0.7359    0.0000 C   0  0  0  0  0  0  0  0  0  0  0  0
    6.8858   -0.3234    0.0000 C   0  0  0  0  0  0  0  0  0  0  0  0
    6.1713   -0.7359    0.0000 C   0  0  0  0  0  0  0  0  0  0  0  0
    8.3147   -0.3234    0.0000 C   0  0  0  0  0  0  0  0  0  0  0  0
    8.3147    0.5016    0.0000 O   0  0  0  0  0  0  0  0  0  0  0  0
    9.0292   -0.7359    0.0000 O   0  0  0  0  0  0  0  0  0  0  0  0
   -2.1004   -1.2589    0.0000 H   0  0  0  0  0  0  0  0  0  0  0  0
   -2.4023   -2.3859    0.0000 H   0  0  0  0  0  0  0  0  0  0  0  0
   -1.2754   -2.6879    0.0000 H   0  0  0  0  0  0  0  0  0  0  0  0
   -0.6031   -0.8237    0.0000 H   0  0  0  0  0  0  0  0  0  0  0  0
   -1.3436   -0.8237    0.0000 H   0  0  0  0  0  0  0  0  0  0  0  0
   -0.6292   -2.7106    0.0000 H   0  0  0  0  0  0  0  0  0  0  0  0
    0.1113   -2.7106    0.0000 H   0  0  0  0  0  0  0  0  0  0  0  0
    0.8258   -0.8237    0.0000 H   0  0  0  0  0  0  0  0  0  0  0  0
    0.0853   -0.8237    0.0000 H   0  0  0  0  0  0  0  0  0  0  0  0
    0.7998   -2.7106    0.0000 H   0  0  0  0  0  0  0  0  0  0  0  0
    1.5403   -2.7106    0.0000 H   0  0  0  0  0  0  0  0  0  0  0  0
    2.2548   -0.8237    0.0000 H   0  0  0  0  0  0  0  0  0  0  0  0
    1.5142   -0.8237    0.0000 H   0  0  0  0  0  0  0  0  0  0  0  0
    2.2287   -2.7106    0.0000 H   0  0  0  0  0  0  0  0  0  0  0  0
    2.9692   -2.7106    0.0000 H   0  0  0  0  0  0  0  0  0  0  0  0
    3.6837   -0.8237    0.0000 H   0  0  0  0  0  0  0  0  0  0  0  0
    2.9432   -0.8237    0.0000 H   0  0  0  0  0  0  0  0  0  0  0  0
    3.6576   -2.7106    0.0000 H   0  0  0  0  0  0  0  0  0  0  0  0
    4.3982   -2.7106    0.0000 H   0  0  0  0  0  0  0  0  0  0  0  0
    6.8858   -2.7984    0.0000 H   0  0  0  0  0  0  0  0  0  0  0  0
    8.3147   -1.9734    0.0000 H   0  0  0  0  0  0  0  0  0  0  0  0
    6.8858    0.5016    0.0000 H   0  0  0  0  0  0  0  0  0  0  0  0
    5.4569   -0.3234    0.0000 H   0  0  0  0  0  0  0  0  0  0  0  0
    9.0292   -1.5609    0.0000 H   0  0  0  0  0  0  0  0  0  0  0  0
  1  2  1  0  0  0  0
  2  3  1  0  0  0  0
  3  4  1  0  0  0  0
  4  5  1  0  0  0  0
  5  6  1  0  0  0  0
  6  7  1  0  0  0  0
  7  8  1  0  0  0  0
  8  9  1  0  0  0  0
  9 10  1  0  0  0  0
 10 11  2  0  0  0  0
 10 12  1  0  0  0  0
 12 13  1  0  0  0  0
 14 13  4  0  0  0  0
 15 14  4  0  0  0  0
 16 15  4  0  0  0  0
 17 16  4  0  0  0  0
 18 17  4  0  0  0  0
 16 19  1  0  0  0  0
 19 20  2  0  0  0  0
 19 21  1  0  0  0  0
 13 18  4  0  0  0  0
  1 22  1  0  0  0  0
  1 23  1  0  0  0  0
  1 24  1  0  0  0  0
  2 25  1  0  0  0  0
  2 26  1  0  0  0  0
  3 27  1  0  0  0  0
  3 28  1  0  0  0  0
  4 29  1  0  0  0  0
  4 30  1  0  0  0  0
  5 31  1  0  0  0  0
  5 32  1  0  0  0  0
  6 33  1  0  0  0  0
  6 34  1  0  0  0  0
  7 35  1  0  0  0  0
  7 36  1  0  0  0  0
  8 37  1  0  0  0  0
  8 38  1  0  0  0  0
  9 39  1  0  0  0  0
  9 40  1  0  0  0  0
 14 41  1  0  0  0  0
 15 42  1  0  0  0  0
 17 43  1  0  0  0  0
 18 44  1  0  0  0  0
 21 45  1  0  0  0  0
M  END
>  <id_input>
2836

>  <InChIKey>
QTMHHQFADWIZCP-UHFFFAOYSA-N

>  <substance_name>
4-(decanoyloxy)benzoic acid

>  <casrn>
86960-46-5

>  <Molecular weight>
292.37005615234375

>  <guideline>
OECD Guideline 404 (Acute Dermal Irritation / Corrosion)

>  <species>
rabbit

>  <type_of_coverage>
semiocclusive

>  <max_duration(hrs)>
4.0

>  <vehicle>
water

>  <edema/ erythema score>
0.0

>  <max_score>
4.0

>  <reversibility>
0.0

>  <Outcome>
0

>  <StandardizerResult>
Remove Explicit Hydrogens (ID: RemoveExplicitH)
Dearomatize (ID: Dearomatize)
Clear Stereo (ID: ClearStereo)
Wedge Clean (ID: WedgeClean)
Mesomerize (ID: Mesomerize)
Tautomerize (ID: Tautomerize)
Aromatize (ID: Aromatize)
Add Explicit Hydrogens (ID: AddExplicitH)
Neutralize (ID: Neutralize)
Clean 2D (ID: Clean2D)


$$$$

  Mrv1812 02121911042D          

 39 40  0  0  0  0            999 V2000
   -0.2069   -3.5393    0.0000 C   0  0  0  0  0  0  0  0  0  0  0  0
   -0.2069   -2.7143    0.0000 C   0  0  0  0  0  0  0  0  0  0  0  0
   -0.9213   -2.3018    0.0000 C   0  0  0  0  0  0  0  0  0  0  0  0
   -1.6358   -2.7143    0.0000 N   0  0  0  0  0  0  0  0  0  0  0  0
   -2.3503   -2.3018    0.0000 C   0  0  0  0  0  0  0  0  0  0  0  0
   -3.0648   -2.7143    0.0000 C   0  0  0  0  0  0  0  0  0  0  0  0
   -3.7792   -2.3018    0.0000 C   0  0  0  0  0  0  0  0  0  0  0  0
   -4.4937   -2.7143    0.0000 C   0  0  0  0  0  0  0  0  0  0  0  0
   -4.4937   -3.5393    0.0000 C   0  0  0  0  0  0  0  0  0  0  0  0
   -3.7792   -3.9518    0.0000 C   0  0  0  0  0  0  0  0  0  0  0  0
   -3.0648   -3.5393    0.0000 C   0  0  0  0  0  0  0  0  0  0  0  0
   -2.3503   -3.9518    0.0000 O   0  0  0  0  0  0  0  0  0  0  0  0
    0.5076   -2.3018    0.0000 N   0  0  0  0  0  0  0  0  0  0  0  0
    1.2221   -2.7143    0.0000 C   0  0  0  0  0  0  0  0  0  0  0  0
    1.9365   -2.3018    0.0000 C   0  0  0  0  0  0  0  0  0  0  0  0
    2.6510   -2.7143    0.0000 C   0  0  0  0  0  0  0  0  0  0  0  0
    3.3655   -2.3018    0.0000 C   0  0  0  0  0  0  0  0  0  0  0  0
    3.3655   -1.4768    0.0000 C   0  0  0  0  0  0  0  0  0  0  0  0
    2.6510   -1.0643    0.0000 C   0  0  0  0  0  0  0  0  0  0  0  0
    1.9365   -1.4768    0.0000 C   0  0  0  0  0  0  0  0  0  0  0  0
    1.2221   -1.0643    0.0000 O   0  0  0  0  0  0  0  0  0  0  0  0
   -1.0319   -3.5393    0.0000 H   0  0  0  0  0  0  0  0  0  0  0  0
   -0.2069   -4.3643    0.0000 H   0  0  0  0  0  0  0  0  0  0  0  0
    0.6181   -3.5393    0.0000 H   0  0  0  0  0  0  0  0  0  0  0  0
   -0.9213   -3.1268    0.0000 H   0  0  0  0  0  0  0  0  0  0  0  0
   -0.5511   -1.5645    0.0000 H   0  0  0  0  0  0  0  0  0  0  0  0
   -1.2916   -1.5645    0.0000 H   0  0  0  0  0  0  0  0  0  0  0  0
   -2.3503   -1.4768    0.0000 H   0  0  0  0  0  0  0  0  0  0  0  0
   -3.7792   -1.4768    0.0000 H   0  0  0  0  0  0  0  0  0  0  0  0
   -5.2082   -2.3018    0.0000 H   0  0  0  0  0  0  0  0  0  0  0  0
   -5.2082   -3.9518    0.0000 H   0  0  0  0  0  0  0  0  0  0  0  0
   -3.7792   -4.7768    0.0000 H   0  0  0  0  0  0  0  0  0  0  0  0
   -2.3503   -4.7768    0.0000 H   0  0  0  0  0  0  0  0  0  0  0  0
    1.2221   -3.5393    0.0000 H   0  0  0  0  0  0  0  0  0  0  0  0
    2.6510   -3.5393    0.0000 H   0  0  0  0  0  0  0  0  0  0  0  0
    4.0800   -2.7143    0.0000 H   0  0  0  0  0  0  0  0  0  0  0  0
    4.0800   -1.0643    0.0000 H   0  0  0  0  0  0  0  0  0  0  0  0
    2.6510   -0.2393    0.0000 H   0  0  0  0  0  0  0  0  0  0  0  0
    1.2221   -0.2393    0.0000 H   0  0  0  0  0  0  0  0  0  0  0  0
  1  2  1  0  0  0  0
  2  3  1  0  0  0  0
  4  3  1  4  0  0  0
  4  5  2  0  0  0  0
  5  6  1  0  0  0  0
  7  6  4  0  0  0  0
  8  7  4  0  0  0  0
  9  8  4  0  0  0  0
 10  9  4  0  0  0  0
 11 10  4  0  0  0  0
 11 12  1  0  0  0  0
 13  2  1  4  0  0  0
 13 14  2  0  0  0  0
 14 15  1  0  0  0  0
 16 15  4  0  0  0  0
 17 16  4  0  0  0  0
 18 17  4  0  0  0  0
 19 18  4  0  0  0  0
 20 19  4  0  0  0  0
 20 21  1  0  0  0  0
  6 11  4  0  0  0  0
 15 20  4  0  0  0  0
  1 22  1  0  0  0  0
  1 23  1  0  0  0  0
  1 24  1  0  0  0  0
  2 25  1  0  0  0  0
  3 26  1  0  0  0  0
  3 27  1  0  0  0  0
  5 28  1  0  0  0  0
  7 29  1  0  0  0  0
  8 30  1  0  0  0  0
  9 31  1  0  0  0  0
 10 32  1  0  0  0  0
 12 33  1  0  0  0  0
 14 34  1  0  0  0  0
 16 35  1  0  0  0  0
 17 36  1  0  0  0  0
 18 37  1  0  0  0  0
 19 38  1  0  0  0  0
 21 39  1  0  0  0  0
M  END
>  <id_input>
2240

>  <InChIKey>
RURPJGZXBHYNEM-UHFFFAOYSA-N

>  <substance_name>
2-[(1Z)-({2-[(E)-[(2-hydroxyphenyl)methylidene]amino]propyl}imino)methyl]phenol

>  <casrn>
94-91-7

>  <Molecular weight>
282.3370361328125

>  <guideline>
OECD Guideline 404 (Acute Dermal Irritation / Corrosion)

>  <species>
rabbit

>  <type_of_coverage>
semiocclusive

>  <max_duration(hrs)>
4.0

>  <vehicle>
unchanged (no vehicle)

>  <edema/ erythema score>
0.53

>  <max_score>
4.0

>  <reversibility>
0.0

>  <Outcome>
0

>  <StandardizerResult>
Remove Explicit Hydrogens (ID: RemoveExplicitH)
Dearomatize (ID: Dearomatize)
Clear Stereo (ID: ClearStereo)
Wedge Clean (ID: WedgeClean)
Mesomerize (ID: Mesomerize)
Tautomerize (ID: Tautomerize)
Aromatize (ID: Aromatize)
Add Explicit Hydrogens (ID: AddExplicitH)
Neutralize (ID: Neutralize)
Clean 2D (ID: Clean2D)


$$$$

  Mrv1812 02121911042D          

 33 34  0  0  0  0            999 V2000
    1.5612    3.4102    0.0000 N   0  0  0  0  0  0  0  0  0  0  0  0
    0.8468    2.9977    0.0000 S   0  0  0  0  0  0  0  0  0  0  0  0
    0.4343    3.7122    0.0000 O   0  0  0  0  0  0  0  0  0  0  0  0
    1.2593    2.2832    0.0000 O   0  0  0  0  0  0  0  0  0  0  0  0
    0.1323    2.5852    0.0000 C   0  0  0  0  0  0  0  0  0  0  0  0
   -0.5822    2.9977    0.0000 C   0  0  0  0  0  0  0  0  0  0  0  0
   -1.2967    2.5852    0.0000 C   0  0  0  0  0  0  0  0  0  0  0  0
   -1.2967    1.7602    0.0000 C   0  0  0  0  0  0  0  0  0  0  0  0
   -2.0111    1.3477    0.0000 N   0  0  0  0  0  0  0  0  0  0  0  0
   -2.0111    0.5227    0.0000 C   0  0  0  0  0  0  0  0  0  0  0  0
   -1.2967    0.1102    0.0000 S   0  0  0  0  0  0  0  0  0  0  0  0
   -2.7256    0.1102    0.0000 N   0  0  0  0  0  0  0  0  0  0  0  0
   -2.7256   -0.7148    0.0000 C   0  0  0  0  0  0  0  0  0  0  0  0
   -3.4401   -1.1273    0.0000 C   0  0  0  0  0  0  0  0  0  0  0  0
   -3.4401   -1.9523    0.0000 C   0  0  0  0  0  0  0  0  0  0  0  0
   -2.7256   -2.3648    0.0000 C   0  0  0  0  0  0  0  0  0  0  0  0
   -2.7256   -3.1898    0.0000 F   0  0  0  0  0  0  0  0  0  0  0  0
   -2.0111   -1.9523    0.0000 C   0  0  0  0  0  0  0  0  0  0  0  0
   -2.0111   -1.1273    0.0000 C   0  0  0  0  0  0  0  0  0  0  0  0
   -0.5822    1.3477    0.0000 C   0  0  0  0  0  0  0  0  0  0  0  0
    0.1323    1.7602    0.0000 C   0  0  0  0  0  0  0  0  0  0  0  0
    2.2757    2.9977    0.0000 H   0  0  0  0  0  0  0  0  0  0  0  0
    1.5612    4.2352    0.0000 H   0  0  0  0  0  0  0  0  0  0  0  0
   -0.5822    3.8227    0.0000 H   0  0  0  0  0  0  0  0  0  0  0  0
   -2.0111    2.9977    0.0000 H   0  0  0  0  0  0  0  0  0  0  0  0
   -2.7256    1.7602    0.0000 H   0  0  0  0  0  0  0  0  0  0  0  0
   -3.4401    0.5227    0.0000 H   0  0  0  0  0  0  0  0  0  0  0  0
   -4.1545   -0.7148    0.0000 H   0  0  0  0  0  0  0  0  0  0  0  0
   -4.1545   -2.3648    0.0000 H   0  0  0  0  0  0  0  0  0  0  0  0
   -1.2967   -2.3648    0.0000 H   0  0  0  0  0  0  0  0  0  0  0  0
   -1.2967   -0.7148    0.0000 H   0  0  0  0  0  0  0  0  0  0  0  0
   -0.5822    0.5227    0.0000 H   0  0  0  0  0  0  0  0  0  0  0  0
    0.8468    1.3477    0.0000 H   0  0  0  0  0  0  0  0  0  0  0  0
  1  2  1  0  0  0  0
  2  3  2  0  0  0  0
  2  4  2  0  0  0  0
  2  5  1  0  0  0  0
  6  5  4  0  0  0  0
  7  6  4  0  0  0  0
  8  7  4  0  0  0  0
  8  9  1  0  0  0  0
  9 10  1  0  0  0  0
 10 11  2  0  0  0  0
 10 12  1  0  0  0  0
 12 13  1  0  0  0  0
 14 13  4  0  0  0  0
 15 14  4  0  0  0  0
 16 15  4  0  0  0  0
 16 17  1  0  0  0  0
 18 16  4  0  0  0  0
 19 18  4  0  0  0  0
 20  8  4  0  0  0  0
 21 20  4  0  0  0  0
  5 21  4  0  0  0  0
 13 19  4  0  0  0  0
  1 22  1  0  0  0  0
  1 23  1  0  0  0  0
  6 24  1  0  0  0  0
  7 25  1  0  0  0  0
  9 26  1  0  0  0  0
 12 27  1  0  0  0  0
 14 28  1  0  0  0  0
 15 29  1  0  0  0  0
 18 30  1  0  0  0  0
 19 31  1  0  0  0  0
 20 32  1  0  0  0  0
 21 33  1  0  0  0  0
M  END
>  <id_input>
1070

>  <InChIKey>
VUDOFEJVAFMLEC-UHFFFAOYSA-N

>  <substance_name>
-

>  <casrn>
6156-18-9

>  <Molecular weight>
325.3816833496094

>  <guideline>
OECD Guideline 404 (Acute Dermal Irritation / Corrosion)

>  <species>
rabbit

>  <type_of_coverage>
semiocclusive

>  <max_duration(hrs)>
4.0

>  <vehicle>
unchanged (no vehicle)

>  <edema/ erythema score>
1.43333333333333

>  <max_score>
4.0

>  <reversibility>
0.0

>  <Outcome>
0

>  <StandardizerResult>
Remove Explicit Hydrogens (ID: RemoveExplicitH)
Dearomatize (ID: Dearomatize)
Clear Stereo (ID: ClearStereo)
Wedge Clean (ID: WedgeClean)
Mesomerize (ID: Mesomerize)
Tautomerize (ID: Tautomerize)
Aromatize (ID: Aromatize)
Add Explicit Hydrogens (ID: AddExplicitH)
Neutralize (ID: Neutralize)
Clean 2D (ID: Clean2D)


$$$$

  Mrv1812 02121911042D          

 25 25  0  0  0  0            999 V2000
    1.2470    1.2678    0.0000 C   0  0  0  0  0  0  0  0  0  0  0  0
    0.5325    0.8553    0.0000 C   0  0  0  0  0  0  0  0  0  0  0  0
   -0.1820    1.2678    0.0000 C   0  0  0  0  0  0  0  0  0  0  0  0
   -0.8964    0.8553    0.0000 C   0  0  0  0  0  0  0  0  0  0  0  0
   -0.8964    0.0303    0.0000 C   0  0  0  0  0  0  0  0  0  0  0  0
   -0.1820   -0.3822    0.0000 C   0  0  0  0  0  0  0  0  0  0  0  0
    0.5325    0.0303    0.0000 C   0  0  0  0  0  0  0  0  0  0  0  0
   -1.6109   -0.3822    0.0000 S   0  0  0  0  0  0  0  0  0  0  0  0
   -2.0234    0.3322    0.0000 O   0  0  0  0  0  0  0  0  0  0  0  0
   -1.1984   -1.0967    0.0000 O   0  0  0  0  0  0  0  0  0  0  0  0
   -2.3254   -0.7947    0.0000 C   0  0  0  0  0  0  0  0  0  0  0  0
   -2.3254   -1.6197    0.0000 N   0  0  0  0  0  0  0  0  0  0  0  0
   -3.0398   -2.0322    0.0000 C   0  0  0  0  0  0  0  0  0  0  0  0
   -3.0398   -2.8572    0.0000 O   0  0  0  0  0  0  0  0  0  0  0  0
    1.6595    0.5533    0.0000 H   0  0  0  0  0  0  0  0  0  0  0  0
    1.9614    1.6803    0.0000 H   0  0  0  0  0  0  0  0  0  0  0  0
    0.8345    1.9822    0.0000 H   0  0  0  0  0  0  0  0  0  0  0  0
   -0.1820    2.0928    0.0000 H   0  0  0  0  0  0  0  0  0  0  0  0
   -1.6109    1.2678    0.0000 H   0  0  0  0  0  0  0  0  0  0  0  0
   -0.1820   -1.2072    0.0000 H   0  0  0  0  0  0  0  0  0  0  0  0
    1.2470   -0.3822    0.0000 H   0  0  0  0  0  0  0  0  0  0  0  0
   -2.7787   -0.1055    0.0000 H   0  0  0  0  0  0  0  0  0  0  0  0
   -3.1490   -0.7468    0.0000 H   0  0  0  0  0  0  0  0  0  0  0  0
   -1.6109   -2.0322    0.0000 H   0  0  0  0  0  0  0  0  0  0  0  0
   -3.7543   -1.6197    0.0000 H   0  0  0  0  0  0  0  0  0  0  0  0
  1  2  1  0  0  0  0
  3  2  4  0  0  0  0
  4  3  4  0  0  0  0
  5  4  4  0  0  0  0
  6  5  4  0  0  0  0
  7  6  4  0  0  0  0
  5  8  1  0  0  0  0
  8  9  2  0  0  0  0
  8 10  2  0  0  0  0
  8 11  1  0  0  0  0
 11 12  1  0  0  0  0
 12 13  1  0  0  0  0
 13 14  2  0  0  0  0
  2  7  4  0  0  0  0
  1 15  1  0  0  0  0
  1 16  1  0  0  0  0
  1 17  1  0  0  0  0
  3 18  1  0  0  0  0
  4 19  1  0  0  0  0
  6 20  1  0  0  0  0
  7 21  1  0  0  0  0
 11 22  1  0  0  0  0
 11 23  1  0  0  0  0
 12 24  1  0  0  0  0
 13 25  1  0  0  0  0
M  END
>  <id_input>
908

>  <InChIKey>
XEHIIYMZJQMMCF-UHFFFAOYSA-N

>  <substance_name>
-

>  <casrn>
36635-56-0

>  <Molecular weight>
213.2535400390625

>  <guideline>
OECD Guideline 404 (Acute Dermal Irritation / Corrosion)

>  <species>
rabbit

>  <type_of_coverage>
occlusive

>  <max_duration(hrs)>
72.0

>  <vehicle>
water

>  <edema/ erythema score>
0.0

>  <max_score>
0.0

>  <reversibility>
0.0

>  <Outcome>
0

>  <StandardizerResult>
Remove Explicit Hydrogens (ID: RemoveExplicitH)
Dearomatize (ID: Dearomatize)
Clear Stereo (ID: ClearStereo)
Wedge Clean (ID: WedgeClean)
Mesomerize (ID: Mesomerize)
Tautomerize (ID: Tautomerize)
Aromatize (ID: Aromatize)
Add Explicit Hydrogens (ID: AddExplicitH)
Neutralize (ID: Neutralize)
Clean 2D (ID: Clean2D)


$$$$

  Mrv1812 02121911042D          

 60 63  0  0  0  0            999 V2000
   -0.2343   -3.4640    0.0000 O   0  0  0  0  0  0  0  0  0  0  0  0
   -0.2343   -2.6390    0.0000 C   0  0  0  0  0  0  0  0  0  0  0  0
   -0.9487   -2.2265    0.0000 C   0  0  0  0  0  0  0  0  0  0  0  0
   -1.6632   -2.6390    0.0000 O   0  0  0  0  0  0  0  0  0  0  0  0
   -0.9487   -1.4015    0.0000 C   0  0  0  0  0  0  0  0  0  0  0  0
   -1.6632   -0.9890    0.0000 O   0  0  0  0  0  0  0  0  0  0  0  0
   -1.6632   -0.1640    0.0000 C   0  0  0  0  0  0  0  0  0  0  0  0
   -0.9487    0.2485    0.0000 O   0  0  0  0  0  0  0  0  0  0  0  0
   -0.2343   -0.1640    0.0000 C   0  0  0  0  0  0  0  0  0  0  0  0
    0.4802    0.2485    0.0000 C   0  0  0  0  0  0  0  0  0  0  0  0
    1.1947   -0.1640    0.0000 O   0  0  0  0  0  0  0  0  0  0  0  0
    1.1947   -0.9890    0.0000 C   0  0  0  0  0  0  0  0  0  0  0  0
    0.4802   -1.4015    0.0000 O   0  0  0  0  0  0  0  0  0  0  0  0
   -0.2343   -0.9890    0.0000 C   0  0  0  0  0  0  0  0  0  0  0  0
    1.9092   -1.4015    0.0000 C   0  0  0  0  0  0  0  0  0  0  0  0
    1.9092   -2.2265    0.0000 C   0  0  0  0  0  0  0  0  0  0  0  0
    2.6236   -2.6390    0.0000 C   0  0  0  0  0  0  0  0  0  0  0  0
    3.3381   -2.2265    0.0000 C   0  0  0  0  0  0  0  0  0  0  0  0
    4.0526   -2.6390    0.0000 C   0  0  0  0  0  0  0  0  0  0  0  0
    4.7670   -2.2265    0.0000 C   0  0  0  0  0  0  0  0  0  0  0  0
    3.3381   -1.4015    0.0000 C   0  0  0  0  0  0  0  0  0  0  0  0
    2.6236   -0.9890    0.0000 C   0  0  0  0  0  0  0  0  0  0  0  0
   -2.3777    0.2485    0.0000 C   0  0  0  0  0  0  0  0  0  0  0  0
   -2.3777    1.0735    0.0000 C   0  0  0  0  0  0  0  0  0  0  0  0
   -3.0921    1.4860    0.0000 C   0  0  0  0  0  0  0  0  0  0  0  0
   -3.8066    1.0735    0.0000 C   0  0  0  0  0  0  0  0  0  0  0  0
   -4.5211    1.4860    0.0000 C   0  0  0  0  0  0  0  0  0  0  0  0
   -5.2355    1.0735    0.0000 C   0  0  0  0  0  0  0  0  0  0  0  0
   -3.8066    0.2485    0.0000 C   0  0  0  0  0  0  0  0  0  0  0  0
   -3.0921   -0.1640    0.0000 C   0  0  0  0  0  0  0  0  0  0  0  0
   -0.9487   -3.8765    0.0000 H   0  0  0  0  0  0  0  0  0  0  0  0
    0.5894   -2.5910    0.0000 H   0  0  0  0  0  0  0  0  0  0  0  0
    0.2191   -1.9497    0.0000 H   0  0  0  0  0  0  0  0  0  0  0  0
   -0.9487   -3.0515    0.0000 H   0  0  0  0  0  0  0  0  0  0  0  0
   -2.4882   -2.6390    0.0000 H   0  0  0  0  0  0  0  0  0  0  0  0
   -1.6632   -1.8140    0.0000 H   0  0  0  0  0  0  0  0  0  0  0  0
   -2.3777   -0.5765    0.0000 H   0  0  0  0  0  0  0  0  0  0  0  0
   -0.2343    0.6610    0.0000 H   0  0  0  0  0  0  0  0  0  0  0  0
    1.1122    0.7788    0.0000 H   0  0  0  0  0  0  0  0  0  0  0  0
    0.6235    1.0610    0.0000 H   0  0  0  0  0  0  0  0  0  0  0  0
    1.1947   -1.8140    0.0000 H   0  0  0  0  0  0  0  0  0  0  0  0
    0.4802   -0.5765    0.0000 H   0  0  0  0  0  0  0  0  0  0  0  0
    1.4967   -2.9409    0.0000 H   0  0  0  0  0  0  0  0  0  0  0  0
    2.6236   -3.4640    0.0000 H   0  0  0  0  0  0  0  0  0  0  0  0
    3.6823   -3.3762    0.0000 H   0  0  0  0  0  0  0  0  0  0  0  0
    4.4228   -3.3762    0.0000 H   0  0  0  0  0  0  0  0  0  0  0  0
    5.1795   -2.9409    0.0000 H   0  0  0  0  0  0  0  0  0  0  0  0
    5.4815   -1.8140    0.0000 H   0  0  0  0  0  0  0  0  0  0  0  0
    4.3545   -1.5120    0.0000 H   0  0  0  0  0  0  0  0  0  0  0  0
    4.0526   -0.9890    0.0000 H   0  0  0  0  0  0  0  0  0  0  0  0
    2.6236   -0.1640    0.0000 H   0  0  0  0  0  0  0  0  0  0  0  0
   -1.6632    1.4860    0.0000 H   0  0  0  0  0  0  0  0  0  0  0  0
   -3.0921    2.3110    0.0000 H   0  0  0  0  0  0  0  0  0  0  0  0
   -4.1508    2.2233    0.0000 H   0  0  0  0  0  0  0  0  0  0  0  0
   -4.8913    2.2233    0.0000 H   0  0  0  0  0  0  0  0  0  0  0  0
   -5.6480    1.7880    0.0000 H   0  0  0  0  0  0  0  0  0  0  0  0
   -5.9500    0.6610    0.0000 H   0  0  0  0  0  0  0  0  0  0  0  0
   -4.8230    0.3591    0.0000 H   0  0  0  0  0  0  0  0  0  0  0  0
   -4.5211   -0.1640    0.0000 H   0  0  0  0  0  0  0  0  0  0  0  0
   -3.5046   -0.8784    0.0000 H   0  0  0  0  0  0  0  0  0  0  0  0
  1  2  1  0  0  0  0
  2  3  1  0  0  0  0
  3  4  1  0  0  0  0
  3  5  1  0  0  0  0
  6  5  1  0  0  0  0
  7  6  1  0  0  0  0
  8  7  1  0  0  0  0
  9  8  1  0  0  0  0
  9 10  1  0  0  0  0
 10 11  1  0  0  0  0
 11 12  1  0  0  0  0
 12 13  1  0  0  0  0
 13 14  1  0  0  0  0
 12 15  1  0  0  0  0
 16 15  4  0  0  0  0
 17 16  4  0  0  0  0
 18 17  4  0  0  0  0
 18 19  1  0  0  0  0
 19 20  1  0  0  0  0
 21 18  4  0  0  0  0
 22 21  4  0  0  0  0
  7 23  1  0  0  0  0
 24 23  4  0  0  0  0
 25 24  4  0  0  0  0
 26 25  4  0  0  0  0
 26 27  1  0  0  0  0
 27 28  1  0  0  0  0
 29 26  4  0  0  0  0
 30 29  4  0  0  0  0
  5 14  1  0  0  0  0
 14  9  1  0  0  0  0
 15 22  4  0  0  0  0
 23 30  4  0  0  0  0
  1 31  1  0  0  0  0
  2 32  1  0  0  0  0
  2 33  1  0  0  0  0
  3 34  1  0  0  0  0
  4 35  1  0  0  0  0
  5 36  1  0  0  0  0
  7 37  1  0  0  0  0
  9 38  1  0  0  0  0
 10 39  1  0  0  0  0
 10 40  1  0  0  0  0
 12 41  1  0  0  0  0
 14 42  1  0  0  0  0
 16 43  1  0  0  0  0
 17 44  1  0  0  0  0
 19 45  1  0  0  0  0
 19 46  1  0  0  0  0
 20 47  1  0  0  0  0
 20 48  1  0  0  0  0
 20 49  1  0  0  0  0
 21 50  1  0  0  0  0
 22 51  1  0  0  0  0
 24 52  1  0  0  0  0
 25 53  1  0  0  0  0
 27 54  1  0  0  0  0
 27 55  1  0  0  0  0
 28 56  1  0  0  0  0
 28 57  1  0  0  0  0
 28 58  1  0  0  0  0
 29 59  1  0  0  0  0
 30 60  1  0  0  0  0
M  END
>  <id_input>
767, 1024

>  <InChIKey>
RPMMDFYGVMKCJU-UHFFFAOYSA-N

>  <substance_name>
-

>  <casrn>
79072-96-1

>  <Molecular weight>
414.49139404296875

>  <guideline>
OECD Guideline 404 (Acute Dermal Irritation / Corrosion)

>  <species>
rabbit

>  <type_of_coverage>
semiocclusive

>  <max_duration(hrs)>
4.0

>  <vehicle>
other: moistened with water

>  <edema/ erythema score>
0.0

>  <max_score>
4.0

>  <reversibility>
0.0

>  <Outcome>
0

>  <StandardizerResult>
Remove Explicit Hydrogens (ID: RemoveExplicitH)
Dearomatize (ID: Dearomatize)
Clear Stereo (ID: ClearStereo)
Wedge Clean (ID: WedgeClean)
Mesomerize (ID: Mesomerize)
Tautomerize (ID: Tautomerize)
Aromatize (ID: Aromatize)
Add Explicit Hydrogens (ID: AddExplicitH)
Neutralize (ID: Neutralize)
Clean 2D (ID: Clean2D)


$$$$

  Mrv1812 02121911042D          

 22 22  0  0  0  0            999 V2000
    2.8780    0.2650    0.0000 C   0  0  0  0  0  0  0  0  0  0  0  0
    2.1636   -0.1475    0.0000 C   0  0  0  0  0  0  0  0  0  0  0  0
    1.4491    0.2650    0.0000 O   0  0  0  0  0  0  0  0  0  0  0  0
    0.7346   -0.1475    0.0000 C   0  0  0  0  0  0  0  0  0  0  0  0
    0.0201    0.2650    0.0000 C   0  0  0  0  0  0  0  0  0  0  0  0
   -0.6943   -0.1475    0.0000 C   0  0  0  0  0  0  0  0  0  0  0  0
   -1.4088    0.2650    0.0000 C   0  0  0  0  0  0  0  0  0  0  0  0
   -2.1233   -0.1475    0.0000 O   0  0  0  0  0  0  0  0  0  0  0  0
   -0.6943   -0.9725    0.0000 C   0  0  0  0  0  0  0  0  0  0  0  0
    0.0201   -1.3850    0.0000 C   0  0  0  0  0  0  0  0  0  0  0  0
    0.7346   -0.9725    0.0000 C   0  0  0  0  0  0  0  0  0  0  0  0
    1.4491   -1.3850    0.0000 O   0  0  0  0  0  0  0  0  0  0  0  0
    3.2905   -0.4495    0.0000 H   0  0  0  0  0  0  0  0  0  0  0  0
    3.5925    0.6775    0.0000 H   0  0  0  0  0  0  0  0  0  0  0  0
    2.4655    0.9794    0.0000 H   0  0  0  0  0  0  0  0  0  0  0  0
    1.7933   -0.8848    0.0000 H   0  0  0  0  0  0  0  0  0  0  0  0
    2.5338   -0.8848    0.0000 H   0  0  0  0  0  0  0  0  0  0  0  0
    0.0201    1.0900    0.0000 H   0  0  0  0  0  0  0  0  0  0  0  0
   -1.4088    1.0900    0.0000 H   0  0  0  0  0  0  0  0  0  0  0  0
   -1.4088   -1.3850    0.0000 H   0  0  0  0  0  0  0  0  0  0  0  0
    0.0201   -2.2100    0.0000 H   0  0  0  0  0  0  0  0  0  0  0  0
    1.6309   -2.1897    0.0000 H   0  0  0  0  0  0  0  0  0  0  0  0
  1  2  1  0  0  0  0
  2  3  1  0  0  0  0
  3  4  1  0  0  0  0
  5  4  4  0  0  0  0
  6  5  4  0  0  0  0
  6  7  1  0  0  0  0
  7  8  2  0  0  0  0
  9  6  4  0  0  0  0
 10  9  4  0  0  0  0
 11 10  4  0  0  0  0
 11 12  1  0  0  0  0
  4 11  4  0  0  0  0
  1 13  1  0  0  0  0
  1 14  1  0  0  0  0
  1 15  1  0  0  0  0
  2 16  1  0  0  0  0
  2 17  1  0  0  0  0
  5 18  1  0  0  0  0
  7 19  1  0  0  0  0
  9 20  1  0  0  0  0
 10 21  1  0  0  0  0
 12 22  1  0  0  0  0
M  END
>  <id_input>
2737

>  <InChIKey>
CBOQJANXLMLOSS-UHFFFAOYSA-N

>  <substance_name>
3-ethoxy-4-hydroxybenzaldehyde

>  <casrn>
121-32-4

>  <Molecular weight>
166.1739044189453

>  <guideline>
OECD Guideline 404 (Acute Dermal Irritation / Corrosion)

>  <species>
rabbit

>  <type_of_coverage>
semiocclusive

>  <max_duration(hrs)>
4.0

>  <vehicle>
unchanged (no vehicle)

>  <edema/ erythema score>
0.333333333333333

>  <max_score>
4.0

>  <reversibility>
0.0

>  <Outcome>
0

>  <StandardizerResult>
Remove Explicit Hydrogens (ID: RemoveExplicitH)
Dearomatize (ID: Dearomatize)
Clear Stereo (ID: ClearStereo)
Wedge Clean (ID: WedgeClean)
Mesomerize (ID: Mesomerize)
Tautomerize (ID: Tautomerize)
Aromatize (ID: Aromatize)
Add Explicit Hydrogens (ID: AddExplicitH)
Neutralize (ID: Neutralize)
Clean 2D (ID: Clean2D)


$$$$

  Mrv1812 02121911042D          

 44 44  0  0  0  0            999 V2000
   -1.4854    3.5621    0.0000 C   0  0  0  0  0  0  0  0  0  0  0  0
   -1.4854    2.7371    0.0000 C   0  0  0  0  0  0  0  0  0  0  0  0
   -2.1999    2.3246    0.0000 C   0  0  0  0  0  0  0  0  0  0  0  0
   -2.1999    1.4996    0.0000 C   0  0  0  0  0  0  0  0  0  0  0  0
   -1.4854    1.0871    0.0000 C   0  0  0  0  0  0  0  0  0  0  0  0
   -0.7709    1.4996    0.0000 C   0  0  0  0  0  0  0  0  0  0  0  0
   -0.7709    2.3246    0.0000 C   0  0  0  0  0  0  0  0  0  0  0  0
   -0.0565    1.0871    0.0000 O   0  0  0  0  0  0  0  0  0  0  0  0
    0.6580    1.4996    0.0000 C   0  0  0  0  0  0  0  0  0  0  0  0
    0.6580    2.3246    0.0000 O   0  0  0  0  0  0  0  0  0  0  0  0
    1.3725    1.0871    0.0000 O   0  0  0  0  0  0  0  0  0  0  0  0
    2.0869    1.4996    0.0000 C   0  0  0  0  0  0  0  0  0  0  0  0
    2.8014    1.0871    0.0000 C   0  0  0  0  0  0  0  0  0  0  0  0
    3.5159    1.4996    0.0000 C   0  0  0  0  0  0  0  0  0  0  0  0
    2.8014    0.2621    0.0000 O   0  0  0  0  0  0  0  0  0  0  0  0
   -1.4854    0.2621    0.0000 C   0  0  0  0  0  0  0  0  0  0  0  0
   -0.7709   -0.1504    0.0000 C   0  0  0  0  0  0  0  0  0  0  0  0
   -2.1999   -0.1504    0.0000 C   0  0  0  0  0  0  0  0  0  0  0  0
   -0.6604    3.5621    0.0000 H   0  0  0  0  0  0  0  0  0  0  0  0
   -1.4854    4.3871    0.0000 H   0  0  0  0  0  0  0  0  0  0  0  0
   -2.3104    3.5621    0.0000 H   0  0  0  0  0  0  0  0  0  0  0  0
   -2.1999    3.1496    0.0000 H   0  0  0  0  0  0  0  0  0  0  0  0
   -2.9751    2.6067    0.0000 H   0  0  0  0  0  0  0  0  0  0  0  0
   -2.9751    2.0424    0.0000 H   0  0  0  0  0  0  0  0  0  0  0  0
   -2.8592    1.0037    0.0000 H   0  0  0  0  0  0  0  0  0  0  0  0
   -2.3706    0.6924    0.0000 H   0  0  0  0  0  0  0  0  0  0  0  0
   -0.7709    0.6746    0.0000 H   0  0  0  0  0  0  0  0  0  0  0  0
   -1.4854    1.9121    0.0000 H   0  0  0  0  0  0  0  0  0  0  0  0
    0.0527    2.3725    0.0000 H   0  0  0  0  0  0  0  0  0  0  0  0
   -0.3176    3.0138    0.0000 H   0  0  0  0  0  0  0  0  0  0  0  0
    2.4572    2.2368    0.0000 H   0  0  0  0  0  0  0  0  0  0  0  0
    1.7167    2.2368    0.0000 H   0  0  0  0  0  0  0  0  0  0  0  0
    2.8014    1.9121    0.0000 H   0  0  0  0  0  0  0  0  0  0  0  0
    3.7294    0.7027    0.0000 H   0  0  0  0  0  0  0  0  0  0  0  0
    4.3409    1.4996    0.0000 H   0  0  0  0  0  0  0  0  0  0  0  0
    3.7294    2.2965    0.0000 H   0  0  0  0  0  0  0  0  0  0  0  0
    2.0869   -0.1504    0.0000 H   0  0  0  0  0  0  0  0  0  0  0  0
   -2.1999    0.6746    0.0000 H   0  0  0  0  0  0  0  0  0  0  0  0
   -1.3543   -0.7338    0.0000 H   0  0  0  0  0  0  0  0  0  0  0  0
   -0.3584   -0.8649    0.0000 H   0  0  0  0  0  0  0  0  0  0  0  0
    0.0259    0.0631    0.0000 H   0  0  0  0  0  0  0  0  0  0  0  0
   -3.0197   -0.0583    0.0000 H   0  0  0  0  0  0  0  0  0  0  0  0
   -2.5391   -0.9025    0.0000 H   0  0  0  0  0  0  0  0  0  0  0  0
   -1.5881   -0.7039    0.0000 H   0  0  0  0  0  0  0  0  0  0  0  0
  1  2  1  0  0  0  0
  3  2  1  0  0  0  0
  4  3  1  0  0  0  0
  5  4  1  0  0  0  0
  6  5  1  0  0  0  0
  7  6  1  0  0  0  0
  6  8  1  0  0  0  0
  8  9  1  0  0  0  0
  9 10  2  0  0  0  0
  9 11  1  0  0  0  0
 11 12  1  0  0  0  0
 12 13  1  0  0  0  0
 13 14  1  0  0  0  0
 13 15  1  0  0  0  0
  5 16  1  0  0  0  0
 16 17  1  0  0  0  0
 16 18  1  0  0  0  0
  2  7  1  0  0  0  0
  1 19  1  0  0  0  0
  1 20  1  0  0  0  0
  1 21  1  0  0  0  0
  2 22  1  0  0  0  0
  3 23  1  0  0  0  0
  3 24  1  0  0  0  0
  4 25  1  0  0  0  0
  4 26  1  0  0  0  0
  5 27  1  0  0  0  0
  6 28  1  0  0  0  0
  7 29  1  0  0  0  0
  7 30  1  0  0  0  0
 12 31  1  0  0  0  0
 12 32  1  0  0  0  0
 13 33  1  0  0  0  0
 14 34  1  0  0  0  0
 14 35  1  0  0  0  0
 14 36  1  0  0  0  0
 15 37  1  0  0  0  0
 16 38  1  0  0  0  0
 17 39  1  0  0  0  0
 17 40  1  0  0  0  0
 17 41  1  0  0  0  0
 18 42  1  0  0  0  0
 18 43  1  0  0  0  0
 18 44  1  0  0  0  0
M  END
>  <id_input>
5375

>  <InChIKey>
FLYJSXDJKBHQAU-UHFFFAOYSA-N

>  <substance_name>
unnamed [260781-16-6]

>  <casrn>
260781-16-6

>  <Molecular weight>
258.3538513183594

>  <guideline>
OECD Guideline 404 (Acute Dermal Irritation / Corrosion)

>  <species>
rabbit

>  <type_of_coverage>
semiocclusive

>  <max_duration(hrs)>
4.0

>  <vehicle>
unchanged (no vehicle)

>  <edema/ erythema score>
0.5

>  <max_score>
4.0

>  <reversibility>
0.0

>  <Outcome>
0

>  <StandardizerResult>
Remove Explicit Hydrogens (ID: RemoveExplicitH)
Clear Stereo (ID: ClearStereo)
Wedge Clean (ID: WedgeClean)
Mesomerize (ID: Mesomerize)
Tautomerize (ID: Tautomerize)
Add Explicit Hydrogens (ID: AddExplicitH)
Neutralize (ID: Neutralize)
Clean 2D (ID: Clean2D)


$$$$

  Mrv1812 02121911042D          

 36 37  0  0  0  0            999 V2000
   -2.6810   -0.4706    0.0000 C   0  0  0  0  0  0  0  0  0  0  0  0
   -2.1557    0.0232    0.0000 C   0  0  0  0  0  0  0  0  0  0  0  0
   -1.6216    0.7615    0.0000 C   0  0  0  0  0  0  0  0  0  0  0  0
   -0.7967    0.7516    0.0000 C   0  0  0  0  0  0  0  0  0  0  0  0
   -0.3928    0.0322    0.0000 C   0  0  0  0  0  0  0  0  0  0  0  0
   -0.8139   -0.6773    0.0000 C   0  0  0  0  0  0  0  0  0  0  0  0
   -1.6388   -0.6673    0.0000 C   0  0  0  0  0  0  0  0  0  0  0  0
   -1.8088    0.0492    0.0000 C   0  0  0  0  0  0  0  0  0  0  0  0
   -0.4100   -1.3967    0.0000 C   0  0  0  0  0  0  0  0  0  0  0  0
    0.4150   -1.4066    0.0000 C   0  0  0  0  0  0  0  0  0  0  0  0
    0.4050   -2.2315    0.0000 C   0  0  0  0  0  0  0  0  0  0  0  0
    0.4249   -0.5816    0.0000 C   0  0  0  0  0  0  0  0  0  0  0  0
    1.2399   -1.4165    0.0000 C   0  0  0  0  0  0  0  0  0  0  0  0
    2.0648   -1.4264    0.0000 N   0  0  0  0  0  0  0  0  0  0  0  0
   -2.6682    0.5899    0.0000 C   0  0  0  0  0  0  0  0  0  0  0  0
   -3.2461    0.1305    0.0000 H   0  0  0  0  0  0  0  0  0  0  0  0
   -3.2821   -1.0357    0.0000 H   0  0  0  0  0  0  0  0  0  0  0  0
   -2.1159   -1.0717    0.0000 H   0  0  0  0  0  0  0  0  0  0  0  0
   -1.9925    1.4984    0.0000 H   0  0  0  0  0  0  0  0  0  0  0  0
   -0.1020    1.1966    0.0000 H   0  0  0  0  0  0  0  0  0  0  0  0
   -0.7388    1.5745    0.0000 H   0  0  0  0  0  0  0  0  0  0  0  0
    0.4322    0.0223    0.0000 H   0  0  0  0  0  0  0  0  0  0  0  0
   -1.3594   -1.4436    0.0000 H   0  0  0  0  0  0  0  0  0  0  0  0
   -1.0674   -0.3126    0.0000 H   0  0  0  0  0  0  0  0  0  0  0  0
   -1.0589    0.3931    0.0000 H   0  0  0  0  0  0  0  0  0  0  0  0
   -0.8016   -2.1228    0.0000 H   0  0  0  0  0  0  0  0  0  0  0  0
    0.0085   -2.1076    0.0000 H   0  0  0  0  0  0  0  0  0  0  0  0
   -0.0762   -2.9016    0.0000 H   0  0  0  0  0  0  0  0  0  0  0  0
    0.8897   -2.8991    0.0000 H   0  0  0  0  0  0  0  0  0  0  0  0
    1.1912   -1.9815    0.0000 H   0  0  0  0  0  0  0  0  0  0  0  0
   -0.3469   -0.2902    0.0000 H   0  0  0  0  0  0  0  0  0  0  0  0
   -0.3537   -0.8545    0.0000 H   0  0  0  0  0  0  0  0  0  0  0  0
    1.2498   -0.5916    0.0000 H   0  0  0  0  0  0  0  0  0  0  0  0
   -1.8869    0.8546    0.0000 H   0  0  0  0  0  0  0  0  0  0  0  0
   -2.6007    1.4121    0.0000 H   0  0  0  0  0  0  0  0  0  0  0  0
   -3.3960    0.9785    0.0000 H   0  0  0  0  0  0  0  0  0  0  0  0
  1  2  1  0  0  0  0
  3  2  1  0  0  0  0
  3  4  1  0  0  0  0
  4  5  1  0  0  0  0
  5  6  2  0  0  0  0
  6  7  1  0  0  0  0
  7  8  1  0  0  0  0
  6  9  1  0  0  0  0
  9 10  1  0  0  0  0
 10 11  1  0  0  0  0
 10 12  1  0  0  0  0
 10 13  1  0  0  0  0
 13 14  3  0  0  0  0
  2 15  1  0  0  0  0
  2  7  1  0  0  0  0
  8  3  1  0  0  0  0
  1 16  1  0  0  0  0
  1 17  1  0  0  0  0
  1 18  1  0  0  0  0
  3 19  1  0  0  0  0
  4 20  1  0  0  0  0
  4 21  1  0  0  0  0
  5 22  1  0  0  0  0
  7 23  1  0  0  0  0
  8 24  1  0  0  0  0
  8 25  1  0  0  0  0
  9 26  1  0  0  0  0
  9 27  1  0  0  0  0
 11 28  1  0  0  0  0
 11 29  1  0  0  0  0
 11 30  1  0  0  0  0
 12 31  1  0  0  0  0
 12 32  1  0  0  0  0
 12 33  1  0  0  0  0
 15 34  1  0  0  0  0
 15 35  1  0  0  0  0
 15 36  1  0  0  0  0
M  END
>  <id_input>
5356

>  <InChIKey>
IDYDEKRGDSORFT-UHFFFAOYSA-N

>  <substance_name>
unnamed [2003244-43-5]

>  <casrn>
2003244-43-5

>  <Molecular weight>
203.3232421875

>  <guideline>
OECD Guideline 404 (Acute Dermal Irritation / Corrosion)

>  <species>
rabbit

>  <type_of_coverage>
not specified

>  <max_duration(hrs)>
4.0

>  <vehicle>
unchanged (no vehicle)

>  <edema/ erythema score>
0.0

>  <max_score>
0.0

>  <reversibility>
0.0

>  <Outcome>
0

>  <StandardizerResult>
Remove Explicit Hydrogens (ID: RemoveExplicitH)
Clear Stereo (ID: ClearStereo)
Wedge Clean (ID: WedgeClean)
Mesomerize (ID: Mesomerize)
Tautomerize (ID: Tautomerize)
Add Explicit Hydrogens (ID: AddExplicitH)
Neutralize (ID: Neutralize)
Clean 2D (ID: Clean2D)


$$$$

  Mrv1812 02121911042D          

 21 21  0  0  0  0            999 V2000
    2.0739    0.4676    0.0000 N   0  0  0  0  0  0  0  0  0  0  0  0
    1.3595    0.8801    0.0000 N   0  0  0  0  0  0  0  0  0  0  0  0
    0.6450    0.4676    0.0000 C   0  0  0  0  0  0  0  0  0  0  0  0
   -0.0695    0.8801    0.0000 C   0  0  0  0  0  0  0  0  0  0  0  0
   -0.7839    0.4676    0.0000 C   0  0  0  0  0  0  0  0  0  0  0  0
   -0.7839   -0.3574    0.0000 C   0  0  0  0  0  0  0  0  0  0  0  0
   -0.0695   -0.7699    0.0000 C   0  0  0  0  0  0  0  0  0  0  0  0
    0.6450   -0.3574    0.0000 C   0  0  0  0  0  0  0  0  0  0  0  0
   -1.4984   -0.7699    0.0000 S   0  0  0  0  0  0  0  0  0  0  0  0
   -2.2129   -1.1824    0.0000 N   0  0  0  0  0  0  0  0  0  0  0  0
   -1.9109   -0.0554    0.0000 O   0  0  0  0  0  0  0  0  0  0  0  0
   -1.0859   -1.4844    0.0000 O   0  0  0  0  0  0  0  0  0  0  0  0
    2.0739   -0.3574    0.0000 H   0  0  0  0  0  0  0  0  0  0  0  0
    2.7884    0.8801    0.0000 H   0  0  0  0  0  0  0  0  0  0  0  0
    1.3595    1.7051    0.0000 H   0  0  0  0  0  0  0  0  0  0  0  0
   -0.0695    1.7051    0.0000 H   0  0  0  0  0  0  0  0  0  0  0  0
   -1.4984    0.8801    0.0000 H   0  0  0  0  0  0  0  0  0  0  0  0
   -0.0695   -1.5949    0.0000 H   0  0  0  0  0  0  0  0  0  0  0  0
    1.3595   -0.7699    0.0000 H   0  0  0  0  0  0  0  0  0  0  0  0
   -2.9274   -0.7699    0.0000 H   0  0  0  0  0  0  0  0  0  0  0  0
   -2.2129   -2.0074    0.0000 H   0  0  0  0  0  0  0  0  0  0  0  0
  1  2  1  0  0  0  0
  2  3  1  0  0  0  0
  4  3  4  0  0  0  0
  5  4  4  0  0  0  0
  6  5  4  0  0  0  0
  7  6  4  0  0  0  0
  8  7  4  0  0  0  0
  6  9  1  0  0  0  0
  9 10  1  0  0  0  0
  9 11  2  0  0  0  0
  9 12  2  0  0  0  0
  3  8  4  0  0  0  0
  1 13  1  0  0  0  0
  1 14  1  0  0  0  0
  2 15  1  0  0  0  0
  4 16  1  0  0  0  0
  5 17  1  0  0  0  0
  7 18  1  0  0  0  0
  8 19  1  0  0  0  0
 10 20  1  0  0  0  0
 10 21  1  0  0  0  0
M  END
>  <id_input>
5337

>  <InChIKey>
NBJSNAGTUCWQRO-UHFFFAOYSA-N

>  <substance_name>
unnamed [17852-52-7]

>  <casrn>
17852-52-7

>  <Molecular weight>
187.2195587158203

>  <guideline>
OECD Guideline 404 (Acute Dermal Irritation / Corrosion)

>  <species>
rabbit

>  <type_of_coverage>
semiocclusive

>  <max_duration(hrs)>
4.0

>  <vehicle>
unchanged (no vehicle)

>  <edema/ erythema score>
0.3325

>  <max_score>
1.0

>  <reversibility>
0.0

>  <Outcome>
0

>  <StandardizerResult>
Remove Explicit Hydrogens (ID: RemoveExplicitH)
Dearomatize (ID: Dearomatize)
Clear Stereo (ID: ClearStereo)
Wedge Clean (ID: WedgeClean)
Mesomerize (ID: Mesomerize)
Tautomerize (ID: Tautomerize)
Aromatize (ID: Aromatize)
Add Explicit Hydrogens (ID: AddExplicitH)
Neutralize (ID: Neutralize)
Clean 2D (ID: Clean2D)


$$$$

  Mrv1812 02121911042D          

 17 17  0  0  0  0            999 V2000
    2.1144    0.3527    0.0000 O   0  0  0  0  0  0  0  0  0  0  0  0
    1.3999    0.7652    0.0000 C   0  0  0  0  0  0  0  0  0  0  0  0
    1.3999    1.5902    0.0000 O   0  0  0  0  0  0  0  0  0  0  0  0
    0.6855    0.3527    0.0000 C   0  0  0  0  0  0  0  0  0  0  0  0
   -0.0290    0.7652    0.0000 C   0  0  0  0  0  0  0  0  0  0  0  0
   -0.7435    0.3527    0.0000 C   0  0  0  0  0  0  0  0  0  0  0  0
   -0.7435   -0.4723    0.0000 C   0  0  0  0  0  0  0  0  0  0  0  0
   -0.0290   -0.8848    0.0000 C   0  0  0  0  0  0  0  0  0  0  0  0
    0.6855   -0.4723    0.0000 C   0  0  0  0  0  0  0  0  0  0  0  0
   -1.4580   -0.8848    0.0000 N   0  0  0  0  0  0  0  0  0  0  0  0
   -1.4580   -1.7098    0.0000 O   0  0  0  0  0  0  0  0  0  0  0  0
   -2.1724   -0.4723    0.0000 O   0  0  0  0  0  0  0  0  0  0  0  0
    2.1144   -0.4723    0.0000 H   0  0  0  0  0  0  0  0  0  0  0  0
   -0.0290    1.5902    0.0000 H   0  0  0  0  0  0  0  0  0  0  0  0
   -1.4580    0.7652    0.0000 H   0  0  0  0  0  0  0  0  0  0  0  0
   -0.0290   -1.7098    0.0000 H   0  0  0  0  0  0  0  0  0  0  0  0
    1.3999   -0.8848    0.0000 H   0  0  0  0  0  0  0  0  0  0  0  0
  1  2  1  0  0  0  0
  2  3  2  0  0  0  0
  2  4  1  0  0  0  0
  5  4  4  0  0  0  0
  6  5  4  0  0  0  0
  7  6  4  0  0  0  0
  8  7  4  0  0  0  0
  9  8  4  0  0  0  0
  7 10  1  0  0  0  0
 10 11  2  0  0  0  0
 10 12  2  0  0  0  0
  4  9  4  0  0  0  0
  1 13  1  0  0  0  0
  5 14  1  0  0  0  0
  6 15  1  0  0  0  0
  8 16  1  0  0  0  0
  9 17  1  0  0  0  0
M  END
>  <id_input>
2928

>  <InChIKey>
OTLNPYWUJOZPPA-UHFFFAOYSA-N

>  <substance_name>
4-nitrobenzoic acid

>  <casrn>
62-23-7

>  <Molecular weight>
167.118896484375

>  <guideline>
OECD Guideline 404 (Acute Dermal Irritation / Corrosion)

>  <species>
rabbit

>  <type_of_coverage>
semiocclusive

>  <max_duration(hrs)>
4.0

>  <vehicle>
other: Polyethyleneglycol 400

>  <edema/ erythema score>
0.0

>  <max_score>
4.0

>  <reversibility>
0.0

>  <Outcome>
0

>  <StandardizerResult>
Remove Explicit Hydrogens (ID: RemoveExplicitH)
Dearomatize (ID: Dearomatize)
Clear Stereo (ID: ClearStereo)
Wedge Clean (ID: WedgeClean)
Mesomerize (ID: Mesomerize)
Tautomerize (ID: Tautomerize)
Aromatize (ID: Aromatize)
Add Explicit Hydrogens (ID: AddExplicitH)
Neutralize (ID: Neutralize)
Clean 2D (ID: Clean2D)


$$$$

  Mrv1812 02121911042D          

 25 25  0  0  0  0            999 V2000
    2.9949    0.3135    0.0000 C   0  0  0  0  0  0  0  0  0  0  0  0
    2.2805    0.7260    0.0000 N   0  0  0  0  0  0  0  0  0  0  0  0
    2.2805    1.5510    0.0000 C   0  0  0  0  0  0  0  0  0  0  0  0
    1.5660    0.3135    0.0000 S   0  0  0  0  0  0  0  0  0  0  0  0
    1.1535    1.0280    0.0000 O   0  0  0  0  0  0  0  0  0  0  0  0
    1.9785   -0.4010    0.0000 O   0  0  0  0  0  0  0  0  0  0  0  0
    0.8515   -0.0990    0.0000 C   0  0  0  0  0  0  0  0  0  0  0  0
    0.1371    0.3135    0.0000 C   0  0  0  0  0  0  0  0  0  0  0  0
   -0.5774   -0.0990    0.0000 C   0  0  0  0  0  0  0  0  0  0  0  0
   -1.2919    0.3135    0.0000 Cl  0  0  0  0  0  0  0  0  0  0  0  0
   -0.5774   -0.9240    0.0000 C   0  0  0  0  0  0  0  0  0  0  0  0
   -1.2919   -1.3365    0.0000 N   0  0  0  0  0  0  0  0  0  0  0  0
    0.1371   -1.3365    0.0000 C   0  0  0  0  0  0  0  0  0  0  0  0
    0.8515   -0.9240    0.0000 C   0  0  0  0  0  0  0  0  0  0  0  0
    1.5660   -1.3365    0.0000 Cl  0  0  0  0  0  0  0  0  0  0  0  0
    2.5824   -0.4010    0.0000 H   0  0  0  0  0  0  0  0  0  0  0  0
    3.7094   -0.0990    0.0000 H   0  0  0  0  0  0  0  0  0  0  0  0
    3.4074    1.0280    0.0000 H   0  0  0  0  0  0  0  0  0  0  0  0
    3.1055    1.5510    0.0000 H   0  0  0  0  0  0  0  0  0  0  0  0
    2.2805    2.3760    0.0000 H   0  0  0  0  0  0  0  0  0  0  0  0
    1.4555    1.5510    0.0000 H   0  0  0  0  0  0  0  0  0  0  0  0
    0.1371    1.1385    0.0000 H   0  0  0  0  0  0  0  0  0  0  0  0
   -2.0064   -0.9240    0.0000 H   0  0  0  0  0  0  0  0  0  0  0  0
   -1.2919   -2.1615    0.0000 H   0  0  0  0  0  0  0  0  0  0  0  0
    0.1371   -2.1615    0.0000 H   0  0  0  0  0  0  0  0  0  0  0  0
  1  2  1  0  0  0  0
  2  3  1  0  0  0  0
  2  4  1  0  0  0  0
  4  5  2  0  0  0  0
  4  6  2  0  0  0  0
  4  7  1  0  0  0  0
  8  7  4  0  0  0  0
  9  8  4  0  0  0  0
  9 10  1  0  0  0  0
 11  9  4  0  0  0  0
 11 12  1  0  0  0  0
 13 11  4  0  0  0  0
 14 13  4  0  0  0  0
 14 15  1  0  0  0  0
  7 14  4  0  0  0  0
  1 16  1  0  0  0  0
  1 17  1  0  0  0  0
  1 18  1  0  0  0  0
  3 19  1  0  0  0  0
  3 20  1  0  0  0  0
  3 21  1  0  0  0  0
  8 22  1  0  0  0  0
 12 23  1  0  0  0  0
 12 24  1  0  0  0  0
 13 25  1  0  0  0  0
M  END
>  <id_input>
2871

>  <InChIKey>
RVDTXDMZBHZDCD-UHFFFAOYSA-N

>  <substance_name>
4-amino-2,5-dichloro-N,N-dimethylbenzenesulfonamide

>  <casrn>
26175-68-8

>  <Molecular weight>
269.148193359375

>  <guideline>
OECD Guideline 404 (Acute Dermal Irritation / Corrosion)

>  <species>
rabbit

>  <type_of_coverage>
occlusive

>  <max_duration(hrs)>
4.0

>  <vehicle>
other: Polyethyleneglycol / Saline = 7 / 3

>  <edema/ erythema score>
0.0

>  <max_score>
4.0

>  <reversibility>
0.0

>  <Outcome>
0

>  <StandardizerResult>
Remove Explicit Hydrogens (ID: RemoveExplicitH)
Dearomatize (ID: Dearomatize)
Clear Stereo (ID: ClearStereo)
Wedge Clean (ID: WedgeClean)
Mesomerize (ID: Mesomerize)
Tautomerize (ID: Tautomerize)
Aromatize (ID: Aromatize)
Add Explicit Hydrogens (ID: AddExplicitH)
Neutralize (ID: Neutralize)
Clean 2D (ID: Clean2D)


$$$$

  Mrv1812 02121911042D          

 21 21  0  0  0  0            999 V2000
    1.2876    1.3525    0.0000 C   0  0  0  0  0  0  0  0  0  0  0  0
    0.5731    0.9400    0.0000 C   0  0  0  0  0  0  0  0  0  0  0  0
   -0.1414    1.3525    0.0000 C   0  0  0  0  0  0  0  0  0  0  0  0
   -0.8558    0.9400    0.0000 C   0  0  0  0  0  0  0  0  0  0  0  0
   -0.8558    0.1150    0.0000 C   0  0  0  0  0  0  0  0  0  0  0  0
   -0.1414   -0.2975    0.0000 C   0  0  0  0  0  0  0  0  0  0  0  0
    0.5731    0.1150    0.0000 C   0  0  0  0  0  0  0  0  0  0  0  0
    1.2876   -0.2975    0.0000 N   0  0  0  0  0  0  0  0  0  0  0  0
   -1.5703   -0.2975    0.0000 C   0  0  0  0  0  0  0  0  0  0  0  0
   -1.5703   -1.1225    0.0000 N   0  0  0  0  0  0  0  0  0  0  0  0
   -2.2848    0.1150    0.0000 O   0  0  0  0  0  0  0  0  0  0  0  0
    1.7001    0.6380    0.0000 H   0  0  0  0  0  0  0  0  0  0  0  0
    2.0021    1.7650    0.0000 H   0  0  0  0  0  0  0  0  0  0  0  0
    0.8751    2.0670    0.0000 H   0  0  0  0  0  0  0  0  0  0  0  0
   -0.1414    2.1775    0.0000 H   0  0  0  0  0  0  0  0  0  0  0  0
   -1.5703    1.3525    0.0000 H   0  0  0  0  0  0  0  0  0  0  0  0
   -0.1414   -1.1225    0.0000 H   0  0  0  0  0  0  0  0  0  0  0  0
    1.2876   -1.1225    0.0000 H   0  0  0  0  0  0  0  0  0  0  0  0
    2.0021    0.1150    0.0000 H   0  0  0  0  0  0  0  0  0  0  0  0
   -2.2848   -1.5350    0.0000 H   0  0  0  0  0  0  0  0  0  0  0  0
   -0.8558   -1.5350    0.0000 H   0  0  0  0  0  0  0  0  0  0  0  0
  1  2  1  0  0  0  0
  3  2  4  0  0  0  0
  4  3  4  0  0  0  0
  5  4  4  0  0  0  0
  6  5  4  0  0  0  0
  7  6  4  0  0  0  0
  7  8  1  0  0  0  0
  5  9  1  0  0  0  0
  9 10  1  0  0  0  0
  9 11  2  0  0  0  0
  2  7  4  0  0  0  0
  1 12  1  0  0  0  0
  1 13  1  0  0  0  0
  1 14  1  0  0  0  0
  3 15  1  0  0  0  0
  4 16  1  0  0  0  0
  6 17  1  0  0  0  0
  8 18  1  0  0  0  0
  8 19  1  0  0  0  0
 10 20  1  0  0  0  0
 10 21  1  0  0  0  0
M  END
>  <id_input>
2725

>  <InChIKey>
VYBKAZXQKUFAHG-UHFFFAOYSA-N

>  <substance_name>
3-amino-4-methylbenzamide

>  <casrn>
19406-86-1

>  <Molecular weight>
150.17779541015625

>  <guideline>
OECD Guideline 404 (Acute Dermal Irritation / Corrosion)

>  <species>
rabbit

>  <type_of_coverage>
semiocclusive

>  <max_duration(hrs)>
4.0

>  <vehicle>
water

>  <edema/ erythema score>
0.11

>  <max_score>
4.0

>  <reversibility>
0.0

>  <Outcome>
0

>  <StandardizerResult>
Remove Explicit Hydrogens (ID: RemoveExplicitH)
Dearomatize (ID: Dearomatize)
Clear Stereo (ID: ClearStereo)
Wedge Clean (ID: WedgeClean)
Mesomerize (ID: Mesomerize)
Tautomerize (ID: Tautomerize)
Aromatize (ID: Aromatize)
Add Explicit Hydrogens (ID: AddExplicitH)
Neutralize (ID: Neutralize)
Clean 2D (ID: Clean2D)


$$$$

  Mrv1812 02121911042D          

 42 44  0  0  0  0            999 V2000
   -1.4289    1.6500    0.0000 O   0  0  0  0  0  0  0  0  0  0  0  0
   -1.4289    0.8250    0.0000 C   0  0  0  0  0  0  0  0  0  0  0  0
   -2.1434    0.4125    0.0000 O   0  0  0  0  0  0  0  0  0  0  0  0
   -0.7145    0.4125    0.0000 C   0  0  0  0  0  0  0  0  0  0  0  0
    0.0000    0.8250    0.0000 C   0  0  0  0  0  0  0  0  0  0  0  0
    0.7145    0.4125    0.0000 C   0  0  0  0  0  0  0  0  0  0  0  0
    1.4290    0.8250    0.0000 N   0  0  0  0  0  0  0  0  0  0  0  0
    1.4290    1.6500    0.0000 C   0  0  0  0  0  0  0  0  0  0  0  0
    2.1434    2.0625    0.0000 C   0  0  0  0  0  0  0  0  0  0  0  0
    2.1434    2.8875    0.0000 C   0  0  0  0  0  0  0  0  0  0  0  0
    1.4290    3.3000    0.0000 C   0  0  0  0  0  0  0  0  0  0  0  0
    0.7145    2.8875    0.0000 C   0  0  0  0  0  0  0  0  0  0  0  0
    0.7145    2.0625    0.0000 C   0  0  0  0  0  0  0  0  0  0  0  0
    0.7145   -0.4125    0.0000 C   0  0  0  0  0  0  0  0  0  0  0  0
    0.0000   -0.8250    0.0000 C   0  0  0  0  0  0  0  0  0  0  0  0
   -0.7145   -0.4125    0.0000 C   0  0  0  0  0  0  0  0  0  0  0  0
   -1.4289   -0.8250    0.0000 N   0  0  0  0  0  0  0  0  0  0  0  0
   -1.4289   -1.6500    0.0000 C   0  0  0  0  0  0  0  0  0  0  0  0
   -2.1434   -2.0625    0.0000 C   0  0  0  0  0  0  0  0  0  0  0  0
   -2.1434   -2.8875    0.0000 C   0  0  0  0  0  0  0  0  0  0  0  0
   -1.4289   -3.3000    0.0000 C   0  0  0  0  0  0  0  0  0  0  0  0
   -0.7145   -2.8875    0.0000 C   0  0  0  0  0  0  0  0  0  0  0  0
   -0.7145   -2.0625    0.0000 C   0  0  0  0  0  0  0  0  0  0  0  0
    1.4290   -0.8250    0.0000 C   0  0  0  0  0  0  0  0  0  0  0  0
    1.4290   -1.6500    0.0000 O   0  0  0  0  0  0  0  0  0  0  0  0
    2.1434   -0.4125    0.0000 O   0  0  0  0  0  0  0  0  0  0  0  0
   -0.7145    2.0625    0.0000 H   0  0  0  0  0  0  0  0  0  0  0  0
    0.0000    1.6500    0.0000 H   0  0  0  0  0  0  0  0  0  0  0  0
    2.1434    0.4125    0.0000 H   0  0  0  0  0  0  0  0  0  0  0  0
    2.8579    1.6500    0.0000 H   0  0  0  0  0  0  0  0  0  0  0  0
    2.8579    3.3000    0.0000 H   0  0  0  0  0  0  0  0  0  0  0  0
    1.4290    4.1250    0.0000 H   0  0  0  0  0  0  0  0  0  0  0  0
    0.0000    3.3000    0.0000 H   0  0  0  0  0  0  0  0  0  0  0  0
    0.0000    2.4750    0.0000 H   0  0  0  0  0  0  0  0  0  0  0  0
    0.0000   -1.6500    0.0000 H   0  0  0  0  0  0  0  0  0  0  0  0
   -2.1434   -0.4125    0.0000 H   0  0  0  0  0  0  0  0  0  0  0  0
   -2.8579   -1.6500    0.0000 H   0  0  0  0  0  0  0  0  0  0  0  0
   -2.8579   -3.3000    0.0000 H   0  0  0  0  0  0  0  0  0  0  0  0
   -1.4289   -4.1250    0.0000 H   0  0  0  0  0  0  0  0  0  0  0  0
    0.0000   -3.3000    0.0000 H   0  0  0  0  0  0  0  0  0  0  0  0
    0.0000   -2.4750    0.0000 H   0  0  0  0  0  0  0  0  0  0  0  0
    0.7145   -2.0625    0.0000 H   0  0  0  0  0  0  0  0  0  0  0  0
  1  2  1  0  0  0  0
  2  3  2  0  0  0  0
  2  4  1  0  0  0  0
  5  4  4  0  0  0  0
  6  5  4  0  0  0  0
  6  7  1  0  0  0  0
  7  8  1  0  0  0  0
  9  8  4  0  0  0  0
 10  9  4  0  0  0  0
 11 10  4  0  0  0  0
 12 11  4  0  0  0  0
 13 12  4  0  0  0  0
 14  6  4  0  0  0  0
 15 14  4  0  0  0  0
 16 15  4  0  0  0  0
 16 17  1  0  0  0  0
 17 18  1  0  0  0  0
 19 18  4  0  0  0  0
 20 19  4  0  0  0  0
 21 20  4  0  0  0  0
 22 21  4  0  0  0  0
 23 22  4  0  0  0  0
 14 24  1  0  0  0  0
 24 25  1  0  0  0  0
 24 26  2  0  0  0  0
  4 16  4  0  0  0  0
  8 13  4  0  0  0  0
 18 23  4  0  0  0  0
  1 27  1  0  0  0  0
  5 28  1  0  0  0  0
  7 29  1  0  0  0  0
  9 30  1  0  0  0  0
 10 31  1  0  0  0  0
 11 32  1  0  0  0  0
 12 33  1  0  0  0  0
 13 34  1  0  0  0  0
 15 35  1  0  0  0  0
 17 36  1  0  0  0  0
 19 37  1  0  0  0  0
 20 38  1  0  0  0  0
 21 39  1  0  0  0  0
 22 40  1  0  0  0  0
 23 41  1  0  0  0  0
 25 42  1  0  0  0  0
M  END
>  <id_input>
2135

>  <InChIKey>
ZJQZWNLKRBUEKX-UHFFFAOYSA-N

>  <substance_name>
2,5-dianilinoterephthalic acid

>  <casrn>
10109-95-2

>  <Molecular weight>
348.35205078125

>  <guideline>
OECD Guideline 404 (Acute Dermal Irritation / Corrosion)

>  <species>
rabbit

>  <type_of_coverage>
semiocclusive

>  <max_duration(hrs)>
4.0

>  <vehicle>
other: Polyethyleneglycol 400

>  <edema/ erythema score>
0.0

>  <max_score>
4.0

>  <reversibility>
0.0

>  <Outcome>
0

>  <StandardizerResult>
Remove Explicit Hydrogens (ID: RemoveExplicitH)
Dearomatize (ID: Dearomatize)
Clear Stereo (ID: ClearStereo)
Wedge Clean (ID: WedgeClean)
Mesomerize (ID: Mesomerize)
Tautomerize (ID: Tautomerize)
Aromatize (ID: Aromatize)
Add Explicit Hydrogens (ID: AddExplicitH)
Neutralize (ID: Neutralize)
Clean 2D (ID: Clean2D)


$$$$

  Mrv1812 02121911042D          

 18 19  0  0  0  0            999 V2000
    1.5535   -1.3438    0.0000 O   0  0  0  0  0  0  0  0  0  0  0  0
    1.5535   -0.5188    0.0000 C   0  0  0  0  0  0  0  0  0  0  0  0
    2.2680   -0.1063    0.0000 O   0  0  0  0  0  0  0  0  0  0  0  0
    0.8391   -0.1063    0.0000 C   0  0  0  0  0  0  0  0  0  0  0  0
    0.8391    0.7187    0.0000 C   0  0  0  0  0  0  0  0  0  0  0  0
    0.1246    1.1312    0.0000 C   0  0  0  0  0  0  0  0  0  0  0  0
   -0.5899    0.7187    0.0000 C   0  0  0  0  0  0  0  0  0  0  0  0
   -1.3745    0.9737    0.0000 C   0  0  0  0  0  0  0  0  0  0  0  0
   -1.6294    1.7583    0.0000 O   0  0  0  0  0  0  0  0  0  0  0  0
   -1.8594    0.3062    0.0000 O   0  0  0  0  0  0  0  0  0  0  0  0
   -1.3745   -0.3612    0.0000 C   0  0  0  0  0  0  0  0  0  0  0  0
   -1.6294   -1.1458    0.0000 O   0  0  0  0  0  0  0  0  0  0  0  0
   -0.5899   -0.1063    0.0000 C   0  0  0  0  0  0  0  0  0  0  0  0
    0.1246   -0.5188    0.0000 C   0  0  0  0  0  0  0  0  0  0  0  0
    0.8391   -1.7563    0.0000 H   0  0  0  0  0  0  0  0  0  0  0  0
    1.5535    1.1312    0.0000 H   0  0  0  0  0  0  0  0  0  0  0  0
    0.1246    1.9562    0.0000 H   0  0  0  0  0  0  0  0  0  0  0  0
    0.1246   -1.3438    0.0000 H   0  0  0  0  0  0  0  0  0  0  0  0
  1  2  1  0  0  0  0
  2  3  2  0  0  0  0
  2  4  1  0  0  0  0
  5  4  4  0  0  0  0
  6  5  4  0  0  0  0
  7  6  4  0  0  0  0
  7  8  1  0  0  0  0
  8  9  2  0  0  0  0
  8 10  1  0  0  0  0
 10 11  1  0  0  0  0
 11 12  2  0  0  0  0
 11 13  1  0  0  0  0
 14 13  4  0  0  0  0
  4 14  4  0  0  0  0
 13  7  4  0  0  0  0
  1 15  1  0  0  0  0
  5 16  1  0  0  0  0
  6 17  1  0  0  0  0
 14 18  1  0  0  0  0
M  END
>  <id_input>
1788, 1789

>  <InChIKey>
SRPWOOOHEPICQU-UHFFFAOYSA-N

>  <substance_name>
1,3-dioxo-1,3-dihydro-2-benzofuran-5-carboxylic acid

>  <casrn>
552-30-7

>  <Molecular weight>
192.12506103515625

>  <guideline>
OECD Guideline 404 (Acute Dermal Irritation / Corrosion)

>  <species>
rabbit

>  <type_of_coverage>
semiocclusive

>  <max_duration(hrs)>
4.0

>  <vehicle>
unchanged (no vehicle)

>  <edema/ erythema score>
1.0

>  <reversibility>
0.0

>  <Outcome>
0

>  <StandardizerResult>
Remove Explicit Hydrogens (ID: RemoveExplicitH)
Dearomatize (ID: Dearomatize)
Clear Stereo (ID: ClearStereo)
Wedge Clean (ID: WedgeClean)
Mesomerize (ID: Mesomerize)
Tautomerize (ID: Tautomerize)
Aromatize (ID: Aromatize)
Add Explicit Hydrogens (ID: AddExplicitH)
Neutralize (ID: Neutralize)
Clean 2D (ID: Clean2D)


$$$$

  Mrv1812 02121911042D          

 61 60  0  0  0  0            999 V2000
   -0.4227   -0.3814    0.0000 C   0  0  0  0  0  0  0  0  0  0  0  0
    0.2917    0.0311    0.0000 C   0  0  0  0  0  0  0  0  0  0  0  0
    1.0062   -0.3814    0.0000 C   0  0  0  0  0  0  0  0  0  0  0  0
    1.7207    0.0311    0.0000 C   0  0  0  0  0  0  0  0  0  0  0  0
    2.4352   -0.3814    0.0000 C   0  0  0  0  0  0  0  0  0  0  0  0
    3.1496    0.0311    0.0000 C   0  0  0  0  0  0  0  0  0  0  0  0
    3.8641   -0.3814    0.0000 C   0  0  0  0  0  0  0  0  0  0  0  0
    4.5786    0.0311    0.0000 C   0  0  0  0  0  0  0  0  0  0  0  0
    5.2930   -0.3814    0.0000 C   0  0  0  0  0  0  0  0  0  0  0  0
    6.0075    0.0311    0.0000 C   0  0  0  0  0  0  0  0  0  0  0  0
    6.7220   -0.3814    0.0000 C   0  0  0  0  0  0  0  0  0  0  0  0
    7.4364    0.0311    0.0000 C   0  0  0  0  0  0  0  0  0  0  0  0
    8.1509   -0.3814    0.0000 N   0  3  0  0  0  0  0  0  0  0  0  0
    7.7384   -1.0959    0.0000 C   0  0  0  0  0  0  0  0  0  0  0  0
    8.5634    0.3331    0.0000 C   0  0  0  0  0  0  0  0  0  0  0  0
    8.8654   -0.7939    0.0000 C   0  0  0  0  0  0  0  0  0  0  0  0
    9.5799   -0.3814    0.0000 C   0  0  0  0  0  0  0  0  0  0  0  0
    9.5799    0.4436    0.0000 O   0  0  0  0  0  0  0  0  0  0  0  0
   10.2943   -0.7939    0.0000 C   0  0  0  0  0  0  0  0  0  0  0  0
   11.0088   -0.3814    0.0000 S   0  0  0  0  0  0  0  0  0  0  0  0
   11.7233    0.0311    0.0000 O   0  0  0  0  0  0  0  0  0  0  0  0
   11.4213   -1.0959    0.0000 O   0  0  0  0  0  0  0  0  0  0  0  0
   10.5963    0.3331    0.0000 O   0  0  0  0  0  0  0  0  0  0  0  0
   -0.8352    0.3331    0.0000 H   0  0  0  0  0  0  0  0  0  0  0  0
   -1.1372   -0.7939    0.0000 H   0  0  0  0  0  0  0  0  0  0  0  0
   -0.0102   -1.0959    0.0000 H   0  0  0  0  0  0  0  0  0  0  0  0
    0.6620    0.7684    0.0000 H   0  0  0  0  0  0  0  0  0  0  0  0
   -0.0785    0.7684    0.0000 H   0  0  0  0  0  0  0  0  0  0  0  0
    0.6360   -1.1186    0.0000 H   0  0  0  0  0  0  0  0  0  0  0  0
    1.3765   -1.1186    0.0000 H   0  0  0  0  0  0  0  0  0  0  0  0
    2.0909    0.7684    0.0000 H   0  0  0  0  0  0  0  0  0  0  0  0
    1.3504    0.7684    0.0000 H   0  0  0  0  0  0  0  0  0  0  0  0
    2.0649   -1.1186    0.0000 H   0  0  0  0  0  0  0  0  0  0  0  0
    2.8054   -1.1186    0.0000 H   0  0  0  0  0  0  0  0  0  0  0  0
    3.5199    0.7684    0.0000 H   0  0  0  0  0  0  0  0  0  0  0  0
    2.7794    0.7684    0.0000 H   0  0  0  0  0  0  0  0  0  0  0  0
    3.4938   -1.1186    0.0000 H   0  0  0  0  0  0  0  0  0  0  0  0
    4.2344   -1.1186    0.0000 H   0  0  0  0  0  0  0  0  0  0  0  0
    4.9488    0.7684    0.0000 H   0  0  0  0  0  0  0  0  0  0  0  0
    4.2083    0.7684    0.0000 H   0  0  0  0  0  0  0  0  0  0  0  0
    4.9228   -1.1186    0.0000 H   0  0  0  0  0  0  0  0  0  0  0  0
    5.6633   -1.1186    0.0000 H   0  0  0  0  0  0  0  0  0  0  0  0
    6.3778    0.7684    0.0000 H   0  0  0  0  0  0  0  0  0  0  0  0
    5.6372    0.7684    0.0000 H   0  0  0  0  0  0  0  0  0  0  0  0
    6.3517   -1.1186    0.0000 H   0  0  0  0  0  0  0  0  0  0  0  0
    7.0922   -1.1186    0.0000 H   0  0  0  0  0  0  0  0  0  0  0  0
    7.8067    0.7684    0.0000 H   0  0  0  0  0  0  0  0  0  0  0  0
    7.0662    0.7684    0.0000 H   0  0  0  0  0  0  0  0  0  0  0  0
    7.3449   -1.8210    0.0000 H   0  0  0  0  0  0  0  0  0  0  0  0
    8.1634   -1.8030    0.0000 H   0  0  0  0  0  0  0  0  0  0  0  0
    8.5634   -1.0886    0.0000 H   0  0  0  0  0  0  0  0  0  0  0  0
    9.0659   -0.3212    0.0000 H   0  0  0  0  0  0  0  0  0  0  0  0
    9.3601    0.5472    0.0000 H   0  0  0  0  0  0  0  0  0  0  0  0
    8.6701    1.1511    0.0000 H   0  0  0  0  0  0  0  0  0  0  0  0
    9.0020   -1.6075    0.0000 H   0  0  0  0  0  0  0  0  0  0  0  0
    9.6117   -1.1456    0.0000 H   0  0  0  0  0  0  0  0  0  0  0  0
   10.2943    0.0311    0.0000 H   0  0  0  0  0  0  0  0  0  0  0  0
    9.9624    1.1746    0.0000 H   0  0  0  0  0  0  0  0  0  0  0  0
   10.4138   -1.6102    0.0000 H   0  0  0  0  0  0  0  0  0  0  0  0
   10.9163   -1.3359    0.0000 H   0  0  0  0  0  0  0  0  0  0  0  0
   12.4377   -0.3814    0.0000 H   0  0  0  0  0  0  0  0  0  0  0  0
  1  2  1  0  0  0  0
  2  3  1  0  0  0  0
  3  4  1  0  0  0  0
  4  5  1  0  0  0  0
  5  6  1  0  0  0  0
  6  7  1  0  0  0  0
  7  8  1  0  0  0  0
  8  9  1  0  0  0  0
  9 10  1  0  0  0  0
 10 11  1  0  0  0  0
 11 12  1  0  0  0  0
 12 13  1  0  0  0  0
 13 14  1  0  0  0  0
 13 15  1  0  0  0  0
 13 16  1  0  0  0  0
 16 17  1  0  0  0  0
 17 18  1  0  0  0  0
 17 19  1  0  0  0  0
 19 20  1  0  0  0  0
 20 21  1  0  0  0  0
 20 22  2  0  0  0  0
 20 23  2  0  0  0  0
  1 24  1  0  0  0  0
  1 25  1  0  0  0  0
  1 26  1  0  0  0  0
  2 27  1  0  0  0  0
  2 28  1  0  0  0  0
  3 29  1  0  0  0  0
  3 30  1  0  0  0  0
  4 31  1  0  0  0  0
  4 32  1  0  0  0  0
  5 33  1  0  0  0  0
  5 34  1  0  0  0  0
  6 35  1  0  0  0  0
  6 36  1  0  0  0  0
  7 37  1  0  0  0  0
  7 38  1  0  0  0  0
  8 39  1  0  0  0  0
  8 40  1  0  0  0  0
  9 41  1  0  0  0  0
  9 42  1  0  0  0  0
 10 43  1  0  0  0  0
 10 44  1  0  0  0  0
 11 45  1  0  0  0  0
 11 46  1  0  0  0  0
 12 47  1  0  0  0  0
 12 48  1  0  0  0  0
 14 49  1  0  0  0  0
 14 50  1  0  0  0  0
 14 51  1  0  0  0  0
 15 52  1  0  0  0  0
 15 53  1  0  0  0  0
 15 54  1  0  0  0  0
 16 55  1  0  0  0  0
 16 56  1  0  0  0  0
 17 57  1  0  0  0  0
 18 58  1  0  0  0  0
 19 59  1  0  0  0  0
 19 60  1  0  0  0  0
 21 61  1  0  0  0  0
M  CHG  1  13   1
M  END
>  <id_input>
2701

>  <InChIKey>
DDGPBVIAYDDWDH-UHFFFAOYSA-O

>  <substance_name>
3-(dodecyldimethylazaniumyl)-2-hydroxypropane-1-sulfonate

>  <casrn>
13197-76-7

>  <Molecular weight>
351.54498291015625

>  <guideline>
OECD Guideline 404 (Acute Dermal Irritation / Corrosion)

>  <species>
rabbit

>  <type_of_coverage>
semiocclusive

>  <max_duration(hrs)>
4.0

>  <vehicle>
unchanged (no vehicle)

>  <edema/ erythema score>
0.78

>  <max_score>
4.0

>  <reversibility>
0.0

>  <Outcome>
0

>  <StandardizerResult>
Remove Explicit Hydrogens (ID: RemoveExplicitH)
Clear Stereo (ID: ClearStereo)
Wedge Clean (ID: WedgeClean)
Mesomerize (ID: Mesomerize)
Tautomerize (ID: Tautomerize)
Add Explicit Hydrogens (ID: AddExplicitH)
Clean 2D (ID: Clean2D)


$$$$

  Mrv1812 02121911042D          

 15 15  0  0  0  0            999 V2000
    2.2044   -0.1007    0.0000 N   0  0  0  0  0  0  0  0  0  0  0  0
    1.4899    0.3118    0.0000 C   0  0  0  0  0  0  0  0  0  0  0  0
    1.4899    1.1368    0.0000 O   0  0  0  0  0  0  0  0  0  0  0  0
    0.7754   -0.1007    0.0000 C   0  0  0  0  0  0  0  0  0  0  0  0
    0.0609    0.3118    0.0000 C   0  0  0  0  0  0  0  0  0  0  0  0
   -0.6535   -0.1007    0.0000 C   0  0  0  0  0  0  0  0  0  0  0  0
   -0.6535   -0.9257    0.0000 C   0  0  0  0  0  0  0  0  0  0  0  0
    0.0609   -1.3382    0.0000 N   0  0  0  0  0  0  0  0  0  0  0  0
    0.7754   -0.9257    0.0000 C   0  0  0  0  0  0  0  0  0  0  0  0
    2.2044   -0.9257    0.0000 H   0  0  0  0  0  0  0  0  0  0  0  0
    2.9188    0.3118    0.0000 H   0  0  0  0  0  0  0  0  0  0  0  0
    0.0609    1.1368    0.0000 H   0  0  0  0  0  0  0  0  0  0  0  0
   -1.3680    0.3118    0.0000 H   0  0  0  0  0  0  0  0  0  0  0  0
   -1.3680   -1.3382    0.0000 H   0  0  0  0  0  0  0  0  0  0  0  0
    1.4899   -1.3382    0.0000 H   0  0  0  0  0  0  0  0  0  0  0  0
  1  2  1  0  0  0  0
  2  3  2  0  0  0  0
  2  4  1  0  0  0  0
  5  4  4  0  0  0  0
  6  5  4  0  0  0  0
  7  6  4  0  0  0  0
  8  7  4  0  0  0  0
  9  8  4  0  0  0  0
  4  9  4  0  0  0  0
  1 10  1  0  0  0  0
  1 11  1  0  0  0  0
  5 12  1  0  0  0  0
  6 13  1  0  0  0  0
  7 14  1  0  0  0  0
  9 15  1  0  0  0  0
M  END
>  <id_input>
4851

>  <InChIKey>
DFPAKSUCGFBDDF-UHFFFAOYSA-N

>  <substance_name>
pyridine-3-carboxamide

>  <casrn>
98-92-0

>  <Molecular weight>
122.12464141845703

>  <guideline>
EU Method B.4 (Acute Toxicity: Dermal Irritation / Corrosion)

>  <species>
rabbit

>  <type_of_coverage>
semiocclusive

>  <max_duration(hrs)>
4.0

>  <vehicle>
water

>  <edema/ erythema score>
0.0

>  <max_score>
0.0

>  <reversibility>
0.0

>  <Outcome>
0

>  <StandardizerResult>
Remove Explicit Hydrogens (ID: RemoveExplicitH)
Dearomatize (ID: Dearomatize)
Clear Stereo (ID: ClearStereo)
Wedge Clean (ID: WedgeClean)
Mesomerize (ID: Mesomerize)
Tautomerize (ID: Tautomerize)
Aromatize (ID: Aromatize)
Add Explicit Hydrogens (ID: AddExplicitH)
Neutralize (ID: Neutralize)
Clean 2D (ID: Clean2D)


$$$$

  Mrv1812 02121911042D          

 44 44  0  0  0  0            999 V2000
   -1.6030   -0.7845    0.0000 C   0  0  0  0  0  0  0  0  0  0  0  0
   -0.8885   -0.3720    0.0000 C   0  0  0  0  0  0  0  0  0  0  0  0
   -0.1741   -0.7845    0.0000 C   0  0  0  0  0  0  0  0  0  0  0  0
   -0.1741   -1.6095    0.0000 O   0  0  0  0  0  0  0  0  0  0  0  0
    0.5404   -0.3720    0.0000 C   0  0  0  0  0  0  0  0  0  0  0  0
    1.2549   -0.7845    0.0000 O   0  0  0  0  0  0  0  0  0  0  0  0
    1.9693   -0.3720    0.0000 C   0  0  0  0  0  0  0  0  0  0  0  0
    2.6838   -0.7845    0.0000 C   0  0  0  0  0  0  0  0  0  0  0  0
    3.3983   -0.3720    0.0000 C   0  0  0  0  0  0  0  0  0  0  0  0
    3.3983    0.4530    0.0000 C   0  0  0  0  0  0  0  0  0  0  0  0
    2.6838    0.8655    0.0000 C   0  0  0  0  0  0  0  0  0  0  0  0
    1.9693    0.4530    0.0000 C   0  0  0  0  0  0  0  0  0  0  0  0
    1.2549    0.8655    0.0000 C   0  0  0  0  0  0  0  0  0  0  0  0
    0.5404    1.2780    0.0000 C   0  0  0  0  0  0  0  0  0  0  0  0
    0.8424    0.1510    0.0000 C   0  0  0  0  0  0  0  0  0  0  0  0
    1.6674    1.5799    0.0000 C   0  0  0  0  0  0  0  0  0  0  0  0
   -2.0155   -0.0701    0.0000 H   0  0  0  0  0  0  0  0  0  0  0  0
   -2.3175   -1.1970    0.0000 H   0  0  0  0  0  0  0  0  0  0  0  0
   -1.1905   -1.4990    0.0000 H   0  0  0  0  0  0  0  0  0  0  0  0
   -0.5183    0.3652    0.0000 H   0  0  0  0  0  0  0  0  0  0  0  0
   -1.2588    0.3652    0.0000 H   0  0  0  0  0  0  0  0  0  0  0  0
   -0.8885   -1.1970    0.0000 H   0  0  0  0  0  0  0  0  0  0  0  0
    0.2384   -2.3240    0.0000 H   0  0  0  0  0  0  0  0  0  0  0  0
   -0.0430    0.2113    0.0000 H   0  0  0  0  0  0  0  0  0  0  0  0
    0.5404   -1.1970    0.0000 H   0  0  0  0  0  0  0  0  0  0  0  0
    1.9693   -1.1970    0.0000 H   0  0  0  0  0  0  0  0  0  0  0  0
    2.8271   -1.5970    0.0000 H   0  0  0  0  0  0  0  0  0  0  0  0
    3.3158   -1.3148    0.0000 H   0  0  0  0  0  0  0  0  0  0  0  0
    4.1574   -0.6951    0.0000 H   0  0  0  0  0  0  0  0  0  0  0  0
    4.1827   -0.1163    0.0000 H   0  0  0  0  0  0  0  0  0  0  0  0
    4.0627    0.9420    0.0000 H   0  0  0  0  0  0  0  0  0  0  0  0
    3.5743    1.2590    0.0000 H   0  0  0  0  0  0  0  0  0  0  0  0
    3.0541    1.6027    0.0000 H   0  0  0  0  0  0  0  0  0  0  0  0
    2.3135    1.6027    0.0000 H   0  0  0  0  0  0  0  0  0  0  0  0
    1.9693    1.2780    0.0000 H   0  0  0  0  0  0  0  0  0  0  0  0
    0.9529    1.9924    0.0000 H   0  0  0  0  0  0  0  0  0  0  0  0
   -0.1741    1.6905    0.0000 H   0  0  0  0  0  0  0  0  0  0  0  0
    0.1279    0.5635    0.0000 H   0  0  0  0  0  0  0  0  0  0  0  0
    1.0559   -0.6459    0.0000 H   0  0  0  0  0  0  0  0  0  0  0  0
    1.5568   -0.2615    0.0000 H   0  0  0  0  0  0  0  0  0  0  0  0
    1.6393    0.3645    0.0000 H   0  0  0  0  0  0  0  0  0  0  0  0
    2.1827    2.2242    0.0000 H   0  0  0  0  0  0  0  0  0  0  0  0
    1.5146    2.3907    0.0000 H   0  0  0  0  0  0  0  0  0  0  0  0
    0.8705    1.3664    0.0000 H   0  0  0  0  0  0  0  0  0  0  0  0
  1  2  1  0  0  0  0
  2  3  1  0  0  0  0
  3  4  1  0  0  0  0
  3  5  1  0  0  0  0
  5  6  1  0  0  0  0
  6  7  1  0  0  0  0
  8  7  1  0  0  0  0
  9  8  1  0  0  0  0
 10  9  1  0  0  0  0
 11 10  1  0  0  0  0
 12 11  1  0  0  0  0
 12 13  1  0  0  0  0
 13 14  1  0  0  0  0
 13 15  1  0  0  0  0
 13 16  1  0  0  0  0
  7 12  1  0  0  0  0
  1 17  1  0  0  0  0
  1 18  1  0  0  0  0
  1 19  1  0  0  0  0
  2 20  1  0  0  0  0
  2 21  1  0  0  0  0
  3 22  1  0  0  0  0
  4 23  1  0  0  0  0
  5 24  1  0  0  0  0
  5 25  1  0  0  0  0
  7 26  1  0  0  0  0
  8 27  1  0  0  0  0
  8 28  1  0  0  0  0
  9 29  1  0  0  0  0
  9 30  1  0  0  0  0
 10 31  1  0  0  0  0
 10 32  1  0  0  0  0
 11 33  1  0  0  0  0
 11 34  1  0  0  0  0
 12 35  1  0  0  0  0
 14 36  1  0  0  0  0
 14 37  1  0  0  0  0
 14 38  1  0  0  0  0
 15 39  1  0  0  0  0
 15 40  1  0  0  0  0
 15 41  1  0  0  0  0
 16 42  1  0  0  0  0
 16 43  1  0  0  0  0
 16 44  1  0  0  0  0
M  END
>  <id_input>
1871

>  <InChIKey>
GQBVHGLNSHPKPG-UHFFFAOYSA-N

>  <substance_name>
1-[(2-tert-butylcyclohexyl)oxy]butan-2-ol

>  <casrn>
139504-68-0

>  <Molecular weight>
228.3709259033203

>  <guideline>
OECD Guideline 404 (Acute Dermal Irritation / Corrosion)

>  <species>
rabbit

>  <type_of_coverage>
semiocclusive

>  <max_duration(hrs)>
4.0

>  <vehicle>
unchanged (no vehicle)

>  <edema/ erythema score>
1.0

>  <max_score>
4.0

>  <reversibility>
0.0

>  <Outcome>
0

>  <StandardizerResult>
Remove Explicit Hydrogens (ID: RemoveExplicitH)
Clear Stereo (ID: ClearStereo)
Wedge Clean (ID: WedgeClean)
Mesomerize (ID: Mesomerize)
Tautomerize (ID: Tautomerize)
Add Explicit Hydrogens (ID: AddExplicitH)
Neutralize (ID: Neutralize)
Clean 2D (ID: Clean2D)


$$$$

  Mrv1812 02121911042D          

 20 20  0  0  0  0            999 V2000
    1.4536    0.9996    0.0000 N   0  0  0  0  0  0  0  0  0  0  0  0
    0.7391    0.5871    0.0000 C   0  0  0  0  0  0  0  0  0  0  0  0
    0.0247    0.9996    0.0000 C   0  0  0  0  0  0  0  0  0  0  0  0
   -0.6898    0.5871    0.0000 C   0  0  0  0  0  0  0  0  0  0  0  0
   -0.6898   -0.2379    0.0000 C   0  0  0  0  0  0  0  0  0  0  0  0
    0.0247   -0.6504    0.0000 C   0  0  0  0  0  0  0  0  0  0  0  0
    0.7391   -0.2379    0.0000 C   0  0  0  0  0  0  0  0  0  0  0  0
    0.0247   -1.4754    0.0000 C   0  0  0  0  0  0  0  0  0  0  0  0
    0.7391   -1.8879    0.0000 O   0  0  0  0  0  0  0  0  0  0  0  0
   -0.6898   -1.8879    0.0000 O   0  0  0  0  0  0  0  0  0  0  0  0
   -1.4043    0.9996    0.0000 C   0  0  0  0  0  0  0  0  0  0  0  0
   -2.1187    0.5871    0.0000 O   0  0  0  0  0  0  0  0  0  0  0  0
   -1.4043    1.8246    0.0000 O   0  0  0  0  0  0  0  0  0  0  0  0
    2.1681    0.5871    0.0000 H   0  0  0  0  0  0  0  0  0  0  0  0
    1.4536    1.8246    0.0000 H   0  0  0  0  0  0  0  0  0  0  0  0
    0.0247    1.8246    0.0000 H   0  0  0  0  0  0  0  0  0  0  0  0
   -1.4043   -0.6504    0.0000 H   0  0  0  0  0  0  0  0  0  0  0  0
    1.4536   -0.6504    0.0000 H   0  0  0  0  0  0  0  0  0  0  0  0
    0.7391   -2.7129    0.0000 H   0  0  0  0  0  0  0  0  0  0  0  0
   -2.8332    0.9996    0.0000 H   0  0  0  0  0  0  0  0  0  0  0  0
  1  2  1  0  0  0  0
  3  2  4  0  0  0  0
  4  3  4  0  0  0  0
  5  4  4  0  0  0  0
  6  5  4  0  0  0  0
  7  6  4  0  0  0  0
  6  8  1  0  0  0  0
  8  9  1  0  0  0  0
  8 10  2  0  0  0  0
  4 11  1  0  0  0  0
 11 12  1  0  0  0  0
 11 13  2  0  0  0  0
  2  7  4  0  0  0  0
  1 14  1  0  0  0  0
  1 15  1  0  0  0  0
  3 16  1  0  0  0  0
  5 17  1  0  0  0  0
  7 18  1  0  0  0  0
  9 19  1  0  0  0  0
 12 20  1  0  0  0  0
M  END
>  <id_input>
2961

>  <InChIKey>
KBZFDRWPMZESDI-UHFFFAOYSA-N

>  <substance_name>
5-aminobenzene-1,3-dicarboxylic acid

>  <casrn>
99-31-0

>  <Molecular weight>
181.14547729492188

>  <guideline>
EU Method B.4 (Acute Toxicity: Dermal Irritation / Corrosion)

>  <species>
rabbit

>  <type_of_coverage>
semiocclusive

>  <max_duration(hrs)>
4.0

>  <vehicle>
unchanged (no vehicle)

>  <edema/ erythema score>
0.0

>  <max_score>
0.0

>  <reversibility>
0.0

>  <Outcome>
0

>  <StandardizerResult>
Remove Explicit Hydrogens (ID: RemoveExplicitH)
Dearomatize (ID: Dearomatize)
Clear Stereo (ID: ClearStereo)
Wedge Clean (ID: WedgeClean)
Mesomerize (ID: Mesomerize)
Tautomerize (ID: Tautomerize)
Aromatize (ID: Aromatize)
Add Explicit Hydrogens (ID: AddExplicitH)
Neutralize (ID: Neutralize)
Clean 2D (ID: Clean2D)


$$$$

  Mrv1812 02121911042D          

 44 43  0  0  0  0            999 V2000
   -0.2347    5.7236    0.0000 C   0  0  0  0  0  0  0  0  0  0  0  0
   -0.6472    5.0091    0.0000 C   0  0  0  0  0  0  0  0  0  0  0  0
   -1.4722    5.0091    0.0000 C   0  0  0  0  0  0  0  0  0  0  0  0
   -0.2347    4.2946    0.0000 C   0  0  0  0  0  0  0  0  0  0  0  0
   -0.6472    3.5802    0.0000 O   0  0  0  0  0  0  0  0  0  0  0  0
   -0.2347    2.8657    0.0000 P   0  0  0  0  0  0  0  0  0  0  0  0
   -0.9492    2.4532    0.0000 S   0  0  0  0  0  0  0  0  0  0  0  0
    0.4797    3.2782    0.0000 O   0  0  0  0  0  0  0  0  0  0  0  0
    1.1942    2.8657    0.0000 C   0  0  0  0  0  0  0  0  0  0  0  0
    1.1942    2.0407    0.0000 C   0  0  0  0  0  0  0  0  0  0  0  0
    0.4797    1.6282    0.0000 C   0  0  0  0  0  0  0  0  0  0  0  0
    1.9087    1.6282    0.0000 C   0  0  0  0  0  0  0  0  0  0  0  0
    0.1778    2.1512    0.0000 S   0  0  0  0  0  0  0  0  0  0  0  0
   -0.2347    1.4367    0.0000 C   0  0  0  0  0  0  0  0  0  0  0  0
    0.1778    0.7223    0.0000 C   0  0  0  0  0  0  0  0  0  0  0  0
    1.0028    0.7223    0.0000 C   0  0  0  0  0  0  0  0  0  0  0  0
   -0.2347    0.0078    0.0000 C   0  0  0  0  0  0  0  0  0  0  0  0
    0.1778   -0.7067    0.0000 O   0  0  0  0  0  0  0  0  0  0  0  0
   -1.0597    0.0078    0.0000 O   0  0  0  0  0  0  0  0  0  0  0  0
    0.4797    5.3111    0.0000 H   0  0  0  0  0  0  0  0  0  0  0  0
    0.1778    6.4380    0.0000 H   0  0  0  0  0  0  0  0  0  0  0  0
   -0.9492    6.1361    0.0000 H   0  0  0  0  0  0  0  0  0  0  0  0
   -1.0597    5.7236    0.0000 H   0  0  0  0  0  0  0  0  0  0  0  0
   -2.0556    5.5925    0.0000 H   0  0  0  0  0  0  0  0  0  0  0  0
   -2.1867    4.5966    0.0000 H   0  0  0  0  0  0  0  0  0  0  0  0
   -1.2587    4.2122    0.0000 H   0  0  0  0  0  0  0  0  0  0  0  0
    0.5025    3.9244    0.0000 H   0  0  0  0  0  0  0  0  0  0  0  0
    0.5025    4.6649    0.0000 H   0  0  0  0  0  0  0  0  0  0  0  0
    2.0178    2.9137    0.0000 H   0  0  0  0  0  0  0  0  0  0  0  0
    1.6476    3.5550    0.0000 H   0  0  0  0  0  0  0  0  0  0  0  0
    0.4797    2.4532    0.0000 H   0  0  0  0  0  0  0  0  0  0  0  0
    0.7095    0.8358    0.0000 H   0  0  0  0  0  0  0  0  0  0  0  0
    1.1189    1.1066    0.0000 H   0  0  0  0  0  0  0  0  0  0  0  0
    1.3021    1.5619    0.0000 H   0  0  0  0  0  0  0  0  0  0  0  0
    2.1579    0.8417    0.0000 H   0  0  0  0  0  0  0  0  0  0  0  0
    2.7333    1.6530    0.0000 H   0  0  0  0  0  0  0  0  0  0  0  0
    2.1102    2.4282    0.0000 H   0  0  0  0  0  0  0  0  0  0  0  0
   -0.9720    1.8070    0.0000 H   0  0  0  0  0  0  0  0  0  0  0  0
   -0.9720    1.0665    0.0000 H   0  0  0  0  0  0  0  0  0  0  0  0
    0.5903    0.0078    0.0000 H   0  0  0  0  0  0  0  0  0  0  0  0
    1.2522   -0.0641    0.0000 H   0  0  0  0  0  0  0  0  0  0  0  0
    1.7516    0.3761    0.0000 H   0  0  0  0  0  0  0  0  0  0  0  0
    1.7634    1.0418    0.0000 H   0  0  0  0  0  0  0  0  0  0  0  0
   -1.4722    0.7223    0.0000 H   0  0  0  0  0  0  0  0  0  0  0  0
  1  2  1  0  0  0  0
  2  3  1  0  0  0  0
  2  4  1  0  0  0  0
  4  5  1  0  0  0  0
  5  6  1  0  0  0  0
  6  7  2  0  0  0  0
  6  8  1  0  0  0  0
  8  9  1  0  0  0  0
  9 10  1  0  0  0  0
 10 11  1  0  0  0  0
 10 12  1  0  0  0  0
  6 13  1  0  0  0  0
 13 14  1  0  0  0  0
 14 15  1  0  0  0  0
 15 16  1  0  0  0  0
 15 17  1  0  0  0  0
 17 18  2  0  0  0  0
 17 19  1  0  0  0  0
  1 20  1  0  0  0  0
  1 21  1  0  0  0  0
  1 22  1  0  0  0  0
  2 23  1  0  0  0  0
  3 24  1  0  0  0  0
  3 25  1  0  0  0  0
  3 26  1  0  0  0  0
  4 27  1  0  0  0  0
  4 28  1  0  0  0  0
  9 29  1  0  0  0  0
  9 30  1  0  0  0  0
 10 31  1  0  0  0  0
 11 32  1  0  0  0  0
 11 33  1  0  0  0  0
 11 34  1  0  0  0  0
 12 35  1  0  0  0  0
 12 36  1  0  0  0  0
 12 37  1  0  0  0  0
 14 38  1  0  0  0  0
 14 39  1  0  0  0  0
 15 40  1  0  0  0  0
 16 41  1  0  0  0  0
 16 42  1  0  0  0  0
 16 43  1  0  0  0  0
 19 44  1  0  0  0  0
M  END
>  <id_input>
1167

>  <InChIKey>
NPRQLWMILWHEDI-UHFFFAOYSA-N

>  <substance_name>
-

>  <casrn>
268567-32-4

>  <Molecular weight>
328.4282531738281

>  <guideline>
OECD Guideline 404 (Acute Dermal Irritation / Corrosion)

>  <species>
rabbit

>  <type_of_coverage>
semiocclusive

>  <max_duration(hrs)>
4.0

>  <vehicle>
unchanged (no vehicle)

>  <edema/ erythema score>
0.0

>  <max_score>
4.0

>  <reversibility>
0.0

>  <Outcome>
0

>  <StandardizerResult>
Remove Explicit Hydrogens (ID: RemoveExplicitH)
Clear Stereo (ID: ClearStereo)
Wedge Clean (ID: WedgeClean)
Mesomerize (ID: Mesomerize)
Tautomerize (ID: Tautomerize)
Add Explicit Hydrogens (ID: AddExplicitH)
Neutralize (ID: Neutralize)
Clean 2D (ID: Clean2D)


$$$$

  Mrv1812 02121911042D          

 13 13  0  0  0  0            999 V2000
    2.0710   -0.3085    0.0000 C   0  0  0  0  0  0  0  0  0  0  0  0
    1.4579    0.2435    0.0000 C   0  0  0  0  0  0  0  0  0  0  0  0
    0.6733   -0.0114    0.0000 N   0  0  0  0  0  0  0  0  0  0  0  0
    0.0058    0.4735    0.0000 C   0  0  0  0  0  0  0  0  0  0  0  0
   -0.6616   -0.0114    0.0000 C   0  0  0  0  0  0  0  0  0  0  0  0
   -0.4067   -0.7960    0.0000 N   0  0  0  0  0  0  0  0  0  0  0  0
    0.4183   -0.7960    0.0000 C   0  0  0  0  0  0  0  0  0  0  0  0
    1.8995   -1.1155    0.0000 H   0  0  0  0  0  0  0  0  0  0  0  0
    2.8556   -0.0536    0.0000 H   0  0  0  0  0  0  0  0  0  0  0  0
    1.6294    1.0505    0.0000 H   0  0  0  0  0  0  0  0  0  0  0  0
    0.0058    1.2985    0.0000 H   0  0  0  0  0  0  0  0  0  0  0  0
   -1.4462    0.2435    0.0000 H   0  0  0  0  0  0  0  0  0  0  0  0
    0.9032   -1.4635    0.0000 H   0  0  0  0  0  0  0  0  0  0  0  0
  1  2  2  0  0  0  0
  2  3  1  0  0  0  0
  4  3  4  0  0  0  0
  5  4  4  0  0  0  0
  6  5  4  0  0  0  0
  7  6  4  0  0  0  0
  3  7  4  0  0  0  0
  1  8  1  0  0  0  0
  1  9  1  0  0  0  0
  2 10  1  0  0  0  0
  4 11  1  0  0  0  0
  5 12  1  0  0  0  0
  7 13  1  0  0  0  0
M  END
>  <id_input>
1964

>  <InChIKey>
OSSNTDFYBPYIEC-UHFFFAOYSA-N

>  <substance_name>
1-vinyl-1H-imidazole

>  <casrn>
1072-63-5

>  <Molecular weight>
94.11454010009766

>  <guideline>
OECD Guideline 404 (Acute Dermal Irritation / Corrosion)

>  <species>
rabbit

>  <type_of_coverage>
semiocclusive

>  <max_duration(hrs)>
4.0

>  <vehicle>
unchanged (no vehicle)

>  <edema/ erythema score>
0.9

>  <max_score>
4.0

>  <reversibility>
0.0

>  <Outcome>
0

>  <StandardizerResult>
Remove Explicit Hydrogens (ID: RemoveExplicitH)
Dearomatize (ID: Dearomatize)
Clear Stereo (ID: ClearStereo)
Wedge Clean (ID: WedgeClean)
Mesomerize (ID: Mesomerize)
Tautomerize (ID: Tautomerize)
Aromatize (ID: Aromatize)
Add Explicit Hydrogens (ID: AddExplicitH)
Neutralize (ID: Neutralize)
Clean 2D (ID: Clean2D)


$$$$

  Mrv1812 02121911042D          

 20 20  0  0  0  0            999 V2000
    0.4494    1.2401    0.0000 C   0  0  0  0  0  0  0  0  0  0  0  0
   -0.2651    1.6526    0.0000 C   0  0  0  0  0  0  0  0  0  0  0  0
   -0.9796    1.2401    0.0000 C   0  0  0  0  0  0  0  0  0  0  0  0
   -0.9796    0.4151    0.0000 C   0  0  0  0  0  0  0  0  0  0  0  0
   -0.2651    0.0026    0.0000 C   0  0  0  0  0  0  0  0  0  0  0  0
    0.4494    0.4151    0.0000 C   0  0  0  0  0  0  0  0  0  0  0  0
   -0.2651   -0.8224    0.0000 C   0  0  0  0  0  0  0  0  0  0  0  0
   -0.2651   -1.6474    0.0000 F   0  0  0  0  0  0  0  0  0  0  0  0
    0.5599   -0.8224    0.0000 F   0  0  0  0  0  0  0  0  0  0  0  0
   -1.0901   -0.8224    0.0000 F   0  0  0  0  0  0  0  0  0  0  0  0
   -1.6940    0.0026    0.0000 S   0  0  0  0  0  0  0  0  0  0  0  0
   -2.1065    0.7171    0.0000 O   0  0  0  0  0  0  0  0  0  0  0  0
   -1.5225   -0.8044    0.0000 O   0  0  0  0  0  0  0  0  0  0  0  0
   -2.4085   -0.4099    0.0000 N   0  0  0  0  0  0  0  0  0  0  0  0
   -2.4085   -1.2349    0.0000 C   0  0  0  0  0  0  0  0  0  0  0  0
   -2.4085   -2.0599    0.0000 O   0  0  0  0  0  0  0  0  0  0  0  0
    1.1638    1.6526    0.0000 H   0  0  0  0  0  0  0  0  0  0  0  0
   -0.2651    2.4776    0.0000 H   0  0  0  0  0  0  0  0  0  0  0  0
   -1.6940    1.6526    0.0000 H   0  0  0  0  0  0  0  0  0  0  0  0
    1.1638    0.0026    0.0000 H   0  0  0  0  0  0  0  0  0  0  0  0
  2  1  4  0  0  0  0
  3  2  4  0  0  0  0
  4  3  4  0  0  0  0
  5  4  4  0  0  0  0
  6  5  4  0  0  0  0
  5  7  1  0  0  0  0
  7  8  1  0  0  0  0
  7  9  1  0  0  0  0
  7 10  1  0  0  0  0
  4 11  1  0  0  0  0
 11 12  2  0  0  0  0
 11 13  2  0  0  0  0
 14 11  1  4  0  0  0
 14 15  2  0  0  0  0
 15 16  2  0  0  0  0
  1  6  4  0  0  0  0
  1 17  1  0  0  0  0
  2 18  1  0  0  0  0
  3 19  1  0  0  0  0
  6 20  1  0  0  0  0
M  END
>  <id_input>
992

>  <InChIKey>
QQYWUZHDPAYMOO-UHFFFAOYSA-N

>  <substance_name>
-

>  <casrn>
85813-73-6

>  <Molecular weight>
251.18246459960938

>  <guideline>
OECD Guideline 404 (Acute Dermal Irritation / Corrosion)

>  <species>
rabbit

>  <type_of_coverage>
semiocclusive

>  <max_duration(hrs)>
4.0

>  <vehicle>
water

>  <edema/ erythema score>
0.1

>  <max_score>
0.3

>  <reversibility>
0.0

>  <Outcome>
0

>  <StandardizerResult>
Remove Explicit Hydrogens (ID: RemoveExplicitH)
Dearomatize (ID: Dearomatize)
Clear Stereo (ID: ClearStereo)
Wedge Clean (ID: WedgeClean)
Mesomerize (ID: Mesomerize)
Tautomerize (ID: Tautomerize)
Aromatize (ID: Aromatize)
Add Explicit Hydrogens (ID: AddExplicitH)
Neutralize (ID: Neutralize)
Clean 2D (ID: Clean2D)


$$$$

  Mrv1812 02121911042D          

 25 26  0  0  0  0            999 V2000
   -0.5859    3.1601    0.0000 N   0  0  0  0  0  0  0  0  0  0  0  0
    0.1286    2.7476    0.0000 C   0  0  0  0  0  0  0  0  0  0  0  0
    0.8430    3.1601    0.0000 C   0  0  0  0  0  0  0  0  0  0  0  0
    1.5575    2.7476    0.0000 C   0  0  0  0  0  0  0  0  0  0  0  0
    2.2720    3.1601    0.0000 Cl  0  0  0  0  0  0  0  0  0  0  0  0
    1.5575    1.9226    0.0000 C   0  0  0  0  0  0  0  0  0  0  0  0
    0.8430    1.5101    0.0000 C   0  0  0  0  0  0  0  0  0  0  0  0
    0.1286    1.9226    0.0000 C   0  0  0  0  0  0  0  0  0  0  0  0
   -0.5859    1.5101    0.0000 O   0  0  0  0  0  0  0  0  0  0  0  0
   -0.5859    0.6851    0.0000 C   0  0  0  0  0  0  0  0  0  0  0  0
   -1.3004    0.2726    0.0000 C   0  0  0  0  0  0  0  0  0  0  0  0
   -1.3004   -0.5524    0.0000 C   0  0  0  0  0  0  0  0  0  0  0  0
   -0.5859   -0.9649    0.0000 C   0  0  0  0  0  0  0  0  0  0  0  0
   -0.5859   -1.7899    0.0000 Cl  0  0  0  0  0  0  0  0  0  0  0  0
    0.1286   -0.5524    0.0000 C   0  0  0  0  0  0  0  0  0  0  0  0
    0.1286    0.2726    0.0000 C   0  0  0  0  0  0  0  0  0  0  0  0
    0.8430    0.6851    0.0000 Cl  0  0  0  0  0  0  0  0  0  0  0  0
   -0.5859    3.9851    0.0000 H   0  0  0  0  0  0  0  0  0  0  0  0
   -1.3004    2.7476    0.0000 H   0  0  0  0  0  0  0  0  0  0  0  0
    0.8430    3.9851    0.0000 H   0  0  0  0  0  0  0  0  0  0  0  0
    2.2720    1.5101    0.0000 H   0  0  0  0  0  0  0  0  0  0  0  0
    1.5575    1.0976    0.0000 H   0  0  0  0  0  0  0  0  0  0  0  0
   -2.0148    0.6851    0.0000 H   0  0  0  0  0  0  0  0  0  0  0  0
   -2.0148   -0.9649    0.0000 H   0  0  0  0  0  0  0  0  0  0  0  0
    0.8430   -0.9649    0.0000 H   0  0  0  0  0  0  0  0  0  0  0  0
  1  2  1  0  0  0  0
  3  2  4  0  0  0  0
  4  3  4  0  0  0  0
  4  5  1  0  0  0  0
  6  4  4  0  0  0  0
  7  6  4  0  0  0  0
  8  7  4  0  0  0  0
  8  9  1  0  0  0  0
  9 10  1  0  0  0  0
 11 10  4  0  0  0  0
 12 11  4  0  0  0  0
 13 12  4  0  0  0  0
 13 14  1  0  0  0  0
 15 13  4  0  0  0  0
 16 15  4  0  0  0  0
 16 17  1  0  0  0  0
  2  8  4  0  0  0  0
 10 16  4  0  0  0  0
  1 18  1  0  0  0  0
  1 19  1  0  0  0  0
  3 20  1  0  0  0  0
  6 21  1  0  0  0  0
  7 22  1  0  0  0  0
 11 23  1  0  0  0  0
 12 24  1  0  0  0  0
 15 25  1  0  0  0  0
M  END
>  <id_input>
2963

>  <InChIKey>
SOOLDKUMSVNBIW-UHFFFAOYSA-N

>  <substance_name>
5-chloro-2-(2,4-dichlorophenoxy)aniline

>  <casrn>
56966-52-0

>  <Molecular weight>
288.5570068359375

>  <guideline>
OECD Guideline 404 (Acute Dermal Irritation / Corrosion)

>  <species>
rabbit

>  <type_of_coverage>
semiocclusive

>  <max_duration(hrs)>
4.0

>  <vehicle>
unchanged (no vehicle)

>  <edema/ erythema score>
1.43333333333333

>  <max_score>
4.0

>  <reversibility>
0.0

>  <Outcome>
0

>  <StandardizerResult>
Remove Explicit Hydrogens (ID: RemoveExplicitH)
Dearomatize (ID: Dearomatize)
Clear Stereo (ID: ClearStereo)
Wedge Clean (ID: WedgeClean)
Mesomerize (ID: Mesomerize)
Tautomerize (ID: Tautomerize)
Aromatize (ID: Aromatize)
Add Explicit Hydrogens (ID: AddExplicitH)
Neutralize (ID: Neutralize)
Clean 2D (ID: Clean2D)


$$$$

  Mrv1812 02121911042D          

 17 17  0  0  0  0            999 V2000
    2.1647    0.4788    0.0000 O   0  0  0  0  0  0  0  0  0  0  0  0
    1.4502    0.8913    0.0000 C   0  0  0  0  0  0  0  0  0  0  0  0
    1.4502    1.7163    0.0000 O   0  0  0  0  0  0  0  0  0  0  0  0
    0.7357    0.4788    0.0000 C   0  0  0  0  0  0  0  0  0  0  0  0
    0.0213    0.8913    0.0000 C   0  0  0  0  0  0  0  0  0  0  0  0
   -0.6932    0.4788    0.0000 C   0  0  0  0  0  0  0  0  0  0  0  0
   -0.6932   -0.3462    0.0000 C   0  0  0  0  0  0  0  0  0  0  0  0
   -1.4077   -0.7587    0.0000 O   0  0  0  0  0  0  0  0  0  0  0  0
    0.0213   -0.7587    0.0000 C   0  0  0  0  0  0  0  0  0  0  0  0
    0.7357   -0.3462    0.0000 C   0  0  0  0  0  0  0  0  0  0  0  0
    1.4502   -0.7587    0.0000 O   0  0  0  0  0  0  0  0  0  0  0  0
    2.1647   -0.3462    0.0000 H   0  0  0  0  0  0  0  0  0  0  0  0
    0.0213    1.7163    0.0000 H   0  0  0  0  0  0  0  0  0  0  0  0
   -1.4077    0.8913    0.0000 H   0  0  0  0  0  0  0  0  0  0  0  0
   -2.1221   -0.3462    0.0000 H   0  0  0  0  0  0  0  0  0  0  0  0
    0.0213   -1.5837    0.0000 H   0  0  0  0  0  0  0  0  0  0  0  0
    1.4502   -1.5837    0.0000 H   0  0  0  0  0  0  0  0  0  0  0  0
  1  2  1  0  0  0  0
  2  3  2  0  0  0  0
  2  4  1  0  0  0  0
  5  4  4  0  0  0  0
  6  5  4  0  0  0  0
  7  6  4  0  0  0  0
  7  8  1  0  0  0  0
  9  7  4  0  0  0  0
 10  9  4  0  0  0  0
 10 11  1  0  0  0  0
  4 10  4  0  0  0  0
  1 12  1  0  0  0  0
  5 13  1  0  0  0  0
  6 14  1  0  0  0  0
  8 15  1  0  0  0  0
  9 16  1  0  0  0  0
 11 17  1  0  0  0  0
M  END
>  <id_input>
2127

>  <InChIKey>
UIAFKZKHHVMJGS-UHFFFAOYSA-N

>  <substance_name>
2,4-dihydroxybenzoic acid

>  <casrn>
89-86-1

>  <Molecular weight>
154.12014770507812

>  <guideline>
OECD Guideline 404 (Acute Dermal Irritation / Corrosion)

>  <species>
rabbit

>  <type_of_coverage>
semiocclusive

>  <max_duration(hrs)>
4.0

>  <vehicle>
physiological saline

>  <edema/ erythema score>
0.0

>  <max_score>
4.0

>  <reversibility>
0.0

>  <Outcome>
0

>  <StandardizerResult>
Remove Explicit Hydrogens (ID: RemoveExplicitH)
Dearomatize (ID: Dearomatize)
Clear Stereo (ID: ClearStereo)
Wedge Clean (ID: WedgeClean)
Mesomerize (ID: Mesomerize)
Tautomerize (ID: Tautomerize)
Aromatize (ID: Aromatize)
Add Explicit Hydrogens (ID: AddExplicitH)
Neutralize (ID: Neutralize)
Clean 2D (ID: Clean2D)


$$$$

  Mrv1812 02121911042D          

 30 31  0  0  0  0            999 V2000
    1.6955    1.1088    0.0000 Cl  0  0  0  0  0  0  0  0  0  0  0  0
    0.9109    0.8539    0.0000 C   0  0  0  0  0  0  0  0  0  0  0  0
    0.2978    1.4059    0.0000 C   0  0  0  0  0  0  0  0  0  0  0  0
   -0.4868    1.1510    0.0000 C   0  0  0  0  0  0  0  0  0  0  0  0
   -0.6584    0.3440    0.0000 C   0  0  0  0  0  0  0  0  0  0  0  0
   -1.4430    0.0891    0.0000 C   0  0  0  0  0  0  0  0  0  0  0  0
   -2.0561    0.6411    0.0000 N   0  0  0  0  0  0  0  0  0  0  0  0
   -2.8407    0.3861    0.0000 C   0  0  0  0  0  0  0  0  0  0  0  0
   -3.5081    0.8711    0.0000 C   0  0  0  0  0  0  0  0  0  0  0  0
   -4.1756    0.3861    0.0000 C   0  0  0  0  0  0  0  0  0  0  0  0
   -3.9206   -0.3985    0.0000 C   0  0  0  0  0  0  0  0  0  0  0  0
   -3.0956   -0.3985    0.0000 C   0  0  0  0  0  0  0  0  0  0  0  0
   -0.0453   -0.2080    0.0000 C   0  0  0  0  0  0  0  0  0  0  0  0
    0.7394    0.0469    0.0000 C   0  0  0  0  0  0  0  0  0  0  0  0
    0.4693    2.2129    0.0000 H   0  0  0  0  0  0  0  0  0  0  0  0
   -1.0999    1.7030    0.0000 H   0  0  0  0  0  0  0  0  0  0  0  0
   -1.9584   -0.5551    0.0000 H   0  0  0  0  0  0  0  0  0  0  0  0
   -1.2341   -0.7091    0.0000 H   0  0  0  0  0  0  0  0  0  0  0  0
   -1.8845    1.4481    0.0000 H   0  0  0  0  0  0  0  0  0  0  0  0
   -2.7116    1.2010    0.0000 H   0  0  0  0  0  0  0  0  0  0  0  0
   -3.6194    1.6885    0.0000 H   0  0  0  0  0  0  0  0  0  0  0  0
   -4.1470    1.3931    0.0000 H   0  0  0  0  0  0  0  0  0  0  0  0
   -4.7487    0.9796    0.0000 H   0  0  0  0  0  0  0  0  0  0  0  0
   -4.9880    0.2429    0.0000 H   0  0  0  0  0  0  0  0  0  0  0  0
   -4.6621   -0.7601    0.0000 H   0  0  0  0  0  0  0  0  0  0  0  0
   -4.0355   -1.2154    0.0000 H   0  0  0  0  0  0  0  0  0  0  0  0
   -2.9808   -1.2154    0.0000 H   0  0  0  0  0  0  0  0  0  0  0  0
   -2.3541   -0.7601    0.0000 H   0  0  0  0  0  0  0  0  0  0  0  0
   -0.2168   -1.0150    0.0000 H   0  0  0  0  0  0  0  0  0  0  0  0
    1.3525   -0.5051    0.0000 H   0  0  0  0  0  0  0  0  0  0  0  0
  1  2  1  0  0  0  0
  3  2  4  0  0  0  0
  4  3  4  0  0  0  0
  5  4  4  0  0  0  0
  5  6  1  0  0  0  0
  6  7  1  0  0  0  0
  7  8  1  0  0  0  0
  9  8  1  0  0  0  0
 10  9  1  0  0  0  0
 11 10  1  0  0  0  0
 12 11  1  0  0  0  0
 13  5  4  0  0  0  0
 14 13  4  0  0  0  0
  2 14  4  0  0  0  0
  8 12  1  0  0  0  0
  3 15  1  0  0  0  0
  4 16  1  0  0  0  0
  6 17  1  0  0  0  0
  6 18  1  0  0  0  0
  7 19  1  0  0  0  0
  8 20  1  0  0  0  0
  9 21  1  0  0  0  0
  9 22  1  0  0  0  0
 10 23  1  0  0  0  0
 10 24  1  0  0  0  0
 11 25  1  0  0  0  0
 11 26  1  0  0  0  0
 12 27  1  0  0  0  0
 12 28  1  0  0  0  0
 13 29  1  0  0  0  0
 14 30  1  0  0  0  0
M  END
>  <id_input>
3455

>  <InChIKey>
XIXHUNCZQIRQOG-UHFFFAOYSA-N

>  <substance_name>
N-(4-chlorobenzyl)cyclopentanamine

>  <casrn>
66063-15-8

>  <Molecular weight>
209.71514892578125

>  <guideline>
EU Method B.4 (Acute Toxicity: Dermal Irritation / Corrosion)

>  <species>
rabbit

>  <type_of_coverage>
semiocclusive

>  <max_duration(hrs)>
4.0

>  <vehicle>
unchanged (no vehicle)

>  <edema/ erythema score>
1.0

>  <max_score>
1.0

>  <reversibility>
0.0

>  <Outcome>
0

>  <StandardizerResult>
Remove Explicit Hydrogens (ID: RemoveExplicitH)
Dearomatize (ID: Dearomatize)
Clear Stereo (ID: ClearStereo)
Wedge Clean (ID: WedgeClean)
Mesomerize (ID: Mesomerize)
Tautomerize (ID: Tautomerize)
Aromatize (ID: Aromatize)
Add Explicit Hydrogens (ID: AddExplicitH)
Neutralize (ID: Neutralize)
Clean 2D (ID: Clean2D)


$$$$

  Mrv1812 02121911042D          

 25 26  0  0  0  0            999 V2000
    3.2619   -1.1928    0.0000 C   0  0  0  0  0  0  0  0  0  0  0  0
    2.4773   -1.4477    0.0000 C   0  0  0  0  0  0  0  0  0  0  0  0
    1.8098   -0.9628    0.0000 C   0  0  0  0  0  0  0  0  0  0  0  0
    1.1424   -1.4477    0.0000 N   0  0  0  0  0  0  0  0  0  0  0  0
    1.3973   -2.2323    0.0000 N   0  0  0  0  0  0  0  0  0  0  0  0
    2.2223   -2.2323    0.0000 C   0  0  0  0  0  0  0  0  0  0  0  0
    2.7072   -2.8998    0.0000 O   0  0  0  0  0  0  0  0  0  0  0  0
    0.3578   -1.1928    0.0000 C   0  0  0  0  0  0  0  0  0  0  0  0
    0.1862   -0.3858    0.0000 C   0  0  0  0  0  0  0  0  0  0  0  0
   -0.5984   -0.1309    0.0000 C   0  0  0  0  0  0  0  0  0  0  0  0
   -1.2115   -0.6829    0.0000 C   0  0  0  0  0  0  0  0  0  0  0  0
   -1.0400   -1.4899    0.0000 C   0  0  0  0  0  0  0  0  0  0  0  0
   -0.2553   -1.7448    0.0000 C   0  0  0  0  0  0  0  0  0  0  0  0
    3.5168   -1.9774    0.0000 H   0  0  0  0  0  0  0  0  0  0  0  0
    4.0465   -0.9378    0.0000 H   0  0  0  0  0  0  0  0  0  0  0  0
    3.0069   -0.4082    0.0000 H   0  0  0  0  0  0  0  0  0  0  0  0
    2.6063   -0.6329    0.0000 H   0  0  0  0  0  0  0  0  0  0  0  0
    1.6986   -0.1453    0.0000 H   0  0  0  0  0  0  0  0  0  0  0  0
    1.1709   -0.4408    0.0000 H   0  0  0  0  0  0  0  0  0  0  0  0
    0.9124   -2.8998    0.0000 H   0  0  0  0  0  0  0  0  0  0  0  0
    0.7993    0.1662    0.0000 H   0  0  0  0  0  0  0  0  0  0  0  0
   -0.7699    0.6761    0.0000 H   0  0  0  0  0  0  0  0  0  0  0  0
   -1.9961   -0.4280    0.0000 H   0  0  0  0  0  0  0  0  0  0  0  0
   -1.6531   -2.0419    0.0000 H   0  0  0  0  0  0  0  0  0  0  0  0
   -0.0838   -2.5518    0.0000 H   0  0  0  0  0  0  0  0  0  0  0  0
  1  2  1  0  0  0  0
  3  2  1  0  0  0  0
  4  3  1  0  0  0  0
  5  4  1  0  0  0  0
  6  5  1  0  0  0  0
  6  7  2  0  0  0  0
  4  8  1  0  0  0  0
  9  8  4  0  0  0  0
 10  9  4  0  0  0  0
 11 10  4  0  0  0  0
 12 11  4  0  0  0  0
 13 12  4  0  0  0  0
  2  6  1  0  0  0  0
  8 13  4  0  0  0  0
  1 14  1  0  0  0  0
  1 15  1  0  0  0  0
  1 16  1  0  0  0  0
  2 17  1  0  0  0  0
  3 18  1  0  0  0  0
  3 19  1  0  0  0  0
  5 20  1  0  0  0  0
  9 21  1  0  0  0  0
 10 22  1  0  0  0  0
 11 23  1  0  0  0  0
 12 24  1  0  0  0  0
 13 25  1  0  0  0  0
M  END
>  <id_input>
2911

>  <InChIKey>
ZZEYCGJAYIHIAZ-UHFFFAOYSA-N

>  <substance_name>
4-methyl-1-phenylpyrazolidin-3-one

>  <casrn>
2654-57-1

>  <Molecular weight>
176.215087890625

>  <guideline>
OECD Guideline 404 (Acute Dermal Irritation / Corrosion)

>  <species>
rabbit

>  <type_of_coverage>
semiocclusive

>  <max_duration(hrs)>
4.0

>  <vehicle>
unchanged (no vehicle)

>  <edema/ erythema score>
0.0

>  <max_score>
0.0

>  <reversibility>
0.0

>  <Outcome>
0

>  <StandardizerResult>
Remove Explicit Hydrogens (ID: RemoveExplicitH)
Dearomatize (ID: Dearomatize)
Clear Stereo (ID: ClearStereo)
Wedge Clean (ID: WedgeClean)
Mesomerize (ID: Mesomerize)
Tautomerize (ID: Tautomerize)
Aromatize (ID: Aromatize)
Add Explicit Hydrogens (ID: AddExplicitH)
Neutralize (ID: Neutralize)
Clean 2D (ID: Clean2D)


$$$$

  Mrv1812 02121911042D          

100101  0  0  0  0            999 V2000
   -4.6329    9.8462    0.0000 C   0  0  0  0  0  0  0  0  0  0  0  0
   -4.6329    9.0212    0.0000 C   0  0  0  0  0  0  0  0  0  0  0  0
   -3.9184    8.6087    0.0000 C   0  0  0  0  0  0  0  0  0  0  0  0
   -3.9184    7.7837    0.0000 C   0  0  0  0  0  0  0  0  0  0  0  0
   -3.2039    7.3712    0.0000 C   0  0  0  0  0  0  0  0  0  0  0  0
   -3.2039    6.5462    0.0000 C   0  0  0  0  0  0  0  0  0  0  0  0
   -2.4895    6.1337    0.0000 C   0  0  0  0  0  0  0  0  0  0  0  0
   -2.4895    5.3087    0.0000 C   0  0  0  0  0  0  0  0  0  0  0  0
   -1.7750    4.8962    0.0000 C   0  0  0  0  0  0  0  0  0  0  0  0
   -1.7750    4.0712    0.0000 C   0  0  0  0  0  0  0  0  0  0  0  0
   -1.0605    3.6587    0.0000 C   0  0  0  0  0  0  0  0  0  0  0  0
   -1.0605    2.8337    0.0000 C   0  0  0  0  0  0  0  0  0  0  0  0
   -0.3460    2.4212    0.0000 C   0  0  0  0  0  0  0  0  0  0  0  0
   -0.3460    1.5962    0.0000 C   0  0  0  0  0  0  0  0  0  0  0  0
    0.3684    1.1837    0.0000 C   0  0  0  0  0  0  0  0  0  0  0  0
    1.0829    1.5962    0.0000 C   0  0  0  0  0  0  0  0  0  0  0  0
    1.7974    1.1837    0.0000 O   0  0  0  0  0  0  0  0  0  0  0  0
    1.7974    0.3587    0.0000 P   0  0  0  0  0  0  0  0  0  0  0  0
    0.9724    0.3587    0.0000 S   0  0  0  0  0  0  0  0  0  0  0  0
    2.6224    0.3587    0.0000 S   0  0  0  0  0  0  0  0  0  0  0  0
    1.7974   -0.4663    0.0000 O   0  0  0  0  0  0  0  0  0  0  0  0
    2.5118   -0.8788    0.0000 C   0  0  0  0  0  0  0  0  0  0  0  0
    2.5118   -1.7038    0.0000 C   0  0  0  0  0  0  0  0  0  0  0  0
    3.2263   -2.1163    0.0000 C   0  0  0  0  0  0  0  0  0  0  0  0
    3.9408   -1.7038    0.0000 C   0  0  0  0  0  0  0  0  0  0  0  0
    4.6552   -2.1163    0.0000 C   0  0  0  0  0  0  0  0  0  0  0  0
    5.3697   -1.7038    0.0000 C   0  0  0  0  0  0  0  0  0  0  0  0
    6.0842   -2.1163    0.0000 C   0  0  0  0  0  0  0  0  0  0  0  0
    6.7987   -1.7038    0.0000 C   0  0  0  0  0  0  0  0  0  0  0  0
    7.5131   -2.1163    0.0000 C   0  0  0  0  0  0  0  0  0  0  0  0
    8.2276   -1.7038    0.0000 C   0  0  0  0  0  0  0  0  0  0  0  0
    8.9421   -2.1163    0.0000 C   0  0  0  0  0  0  0  0  0  0  0  0
    9.6565   -1.7038    0.0000 C   0  0  0  0  0  0  0  0  0  0  0  0
   10.3710   -2.1163    0.0000 C   0  0  0  0  0  0  0  0  0  0  0  0
   11.0855   -1.7038    0.0000 C   0  0  0  0  0  0  0  0  0  0  0  0
   11.8000   -2.1163    0.0000 C   0  0  0  0  0  0  0  0  0  0  0  0
   12.5144   -1.7038    0.0000 C   0  0  0  0  0  0  0  0  0  0  0  0
    3.9408   -0.8788    0.0000 C   0  0  0  0  0  0  0  0  0  0  0  0
    3.2263   -0.4663    0.0000 C   0  0  0  0  0  0  0  0  0  0  0  0
    1.0829    2.4212    0.0000 C   0  0  0  0  0  0  0  0  0  0  0  0
    0.3684    2.8337    0.0000 C   0  0  0  0  0  0  0  0  0  0  0  0
   -3.8079    9.8462    0.0000 H   0  0  0  0  0  0  0  0  0  0  0  0
   -4.6329   10.6712    0.0000 H   0  0  0  0  0  0  0  0  0  0  0  0
   -5.4579    9.8462    0.0000 H   0  0  0  0  0  0  0  0  0  0  0  0
   -5.4565    8.9732    0.0000 H   0  0  0  0  0  0  0  0  0  0  0  0
   -5.0862    8.3319    0.0000 H   0  0  0  0  0  0  0  0  0  0  0  0
   -3.0948    8.6566    0.0000 H   0  0  0  0  0  0  0  0  0  0  0  0
   -3.4651    9.2979    0.0000 H   0  0  0  0  0  0  0  0  0  0  0  0
   -4.7420    7.7357    0.0000 H   0  0  0  0  0  0  0  0  0  0  0  0
   -4.3717    7.0944    0.0000 H   0  0  0  0  0  0  0  0  0  0  0  0
   -2.3803    7.4191    0.0000 H   0  0  0  0  0  0  0  0  0  0  0  0
   -2.7506    8.0604    0.0000 H   0  0  0  0  0  0  0  0  0  0  0  0
   -4.0275    6.4982    0.0000 H   0  0  0  0  0  0  0  0  0  0  0  0
   -3.6573    5.8569    0.0000 H   0  0  0  0  0  0  0  0  0  0  0  0
   -1.6659    6.1816    0.0000 H   0  0  0  0  0  0  0  0  0  0  0  0
   -2.0361    6.8229    0.0000 H   0  0  0  0  0  0  0  0  0  0  0  0
   -3.3131    5.2607    0.0000 H   0  0  0  0  0  0  0  0  0  0  0  0
   -2.9428    4.6194    0.0000 H   0  0  0  0  0  0  0  0  0  0  0  0
   -0.9514    4.9441    0.0000 H   0  0  0  0  0  0  0  0  0  0  0  0
   -1.3216    5.5854    0.0000 H   0  0  0  0  0  0  0  0  0  0  0  0
   -2.5986    4.0232    0.0000 H   0  0  0  0  0  0  0  0  0  0  0  0
   -2.2283    3.3819    0.0000 H   0  0  0  0  0  0  0  0  0  0  0  0
   -0.2369    3.7066    0.0000 H   0  0  0  0  0  0  0  0  0  0  0  0
   -0.6072    4.3479    0.0000 H   0  0  0  0  0  0  0  0  0  0  0  0
   -1.8841    2.7857    0.0000 H   0  0  0  0  0  0  0  0  0  0  0  0
   -1.5139    2.1444    0.0000 H   0  0  0  0  0  0  0  0  0  0  0  0
   -1.0605    1.1837    0.0000 H   0  0  0  0  0  0  0  0  0  0  0  0
    0.3684    0.3587    0.0000 H   0  0  0  0  0  0  0  0  0  0  0  0
    0.9724    1.1837    0.0000 H   0  0  0  0  0  0  0  0  0  0  0  0
    1.7974   -2.1163    0.0000 H   0  0  0  0  0  0  0  0  0  0  0  0
    3.2263   -2.9413    0.0000 H   0  0  0  0  0  0  0  0  0  0  0  0
    4.2850   -2.8536    0.0000 H   0  0  0  0  0  0  0  0  0  0  0  0
    5.0255   -2.8536    0.0000 H   0  0  0  0  0  0  0  0  0  0  0  0
    5.7400   -0.9666    0.0000 H   0  0  0  0  0  0  0  0  0  0  0  0
    4.9995   -0.9666    0.0000 H   0  0  0  0  0  0  0  0  0  0  0  0
    5.7139   -2.8536    0.0000 H   0  0  0  0  0  0  0  0  0  0  0  0
    6.4544   -2.8536    0.0000 H   0  0  0  0  0  0  0  0  0  0  0  0
    7.1689   -0.9666    0.0000 H   0  0  0  0  0  0  0  0  0  0  0  0
    6.4284   -0.9666    0.0000 H   0  0  0  0  0  0  0  0  0  0  0  0
    7.1429   -2.8536    0.0000 H   0  0  0  0  0  0  0  0  0  0  0  0
    7.8834   -2.8536    0.0000 H   0  0  0  0  0  0  0  0  0  0  0  0
    8.5979   -0.9666    0.0000 H   0  0  0  0  0  0  0  0  0  0  0  0
    7.8573   -0.9666    0.0000 H   0  0  0  0  0  0  0  0  0  0  0  0
    8.5718   -2.8536    0.0000 H   0  0  0  0  0  0  0  0  0  0  0  0
    9.3123   -2.8536    0.0000 H   0  0  0  0  0  0  0  0  0  0  0  0
   10.0268   -0.9666    0.0000 H   0  0  0  0  0  0  0  0  0  0  0  0
    9.2863   -0.9666    0.0000 H   0  0  0  0  0  0  0  0  0  0  0  0
   10.0008   -2.8536    0.0000 H   0  0  0  0  0  0  0  0  0  0  0  0
   10.7413   -2.8536    0.0000 H   0  0  0  0  0  0  0  0  0  0  0  0
   11.4557   -0.9666    0.0000 H   0  0  0  0  0  0  0  0  0  0  0  0
   10.7152   -0.9666    0.0000 H   0  0  0  0  0  0  0  0  0  0  0  0
   11.4297   -2.8536    0.0000 H   0  0  0  0  0  0  0  0  0  0  0  0
   12.1702   -2.8536    0.0000 H   0  0  0  0  0  0  0  0  0  0  0  0
   12.9269   -2.4183    0.0000 H   0  0  0  0  0  0  0  0  0  0  0  0
   13.2289   -1.2913    0.0000 H   0  0  0  0  0  0  0  0  0  0  0  0
   12.1019   -0.9894    0.0000 H   0  0  0  0  0  0  0  0  0  0  0  0
    4.6552   -0.4663    0.0000 H   0  0  0  0  0  0  0  0  0  0  0  0
    3.2263    0.3587    0.0000 H   0  0  0  0  0  0  0  0  0  0  0  0
    1.7974    2.8337    0.0000 H   0  0  0  0  0  0  0  0  0  0  0  0
    0.3684    3.6587    0.0000 H   0  0  0  0  0  0  0  0  0  0  0  0
  1  2  1  0  0  0  0
  2  3  1  0  0  0  0
  3  4  1  0  0  0  0
  4  5  1  0  0  0  0
  5  6  1  0  0  0  0
  6  7  1  0  0  0  0
  7  8  1  0  0  0  0
  8  9  1  0  0  0  0
  9 10  1  0  0  0  0
 10 11  1  0  0  0  0
 11 12  1  0  0  0  0
 12 13  1  0  0  0  0
 14 13  4  0  0  0  0
 15 14  4  0  0  0  0
 16 15  4  0  0  0  0
 16 17  1  0  0  0  0
 17 18  1  0  0  0  0
 18 19  1  0  0  0  0
 18 20  2  0  0  0  0
 18 21  1  0  0  0  0
 21 22  1  0  0  0  0
 23 22  4  0  0  0  0
 24 23  4  0  0  0  0
 25 24  4  0  0  0  0
 25 26  1  0  0  0  0
 26 27  1  0  0  0  0
 27 28  1  0  0  0  0
 28 29  1  0  0  0  0
 29 30  1  0  0  0  0
 30 31  1  0  0  0  0
 31 32  1  0  0  0  0
 32 33  1  0  0  0  0
 33 34  1  0  0  0  0
 34 35  1  0  0  0  0
 35 36  1  0  0  0  0
 36 37  1  0  0  0  0
 38 25  4  0  0  0  0
 39 38  4  0  0  0  0
 40 16  4  0  0  0  0
 41 40  4  0  0  0  0
 13 41  4  0  0  0  0
 22 39  4  0  0  0  0
  1 42  1  0  0  0  0
  1 43  1  0  0  0  0
  1 44  1  0  0  0  0
  2 45  1  0  0  0  0
  2 46  1  0  0  0  0
  3 47  1  0  0  0  0
  3 48  1  0  0  0  0
  4 49  1  0  0  0  0
  4 50  1  0  0  0  0
  5 51  1  0  0  0  0
  5 52  1  0  0  0  0
  6 53  1  0  0  0  0
  6 54  1  0  0  0  0
  7 55  1  0  0  0  0
  7 56  1  0  0  0  0
  8 57  1  0  0  0  0
  8 58  1  0  0  0  0
  9 59  1  0  0  0  0
  9 60  1  0  0  0  0
 10 61  1  0  0  0  0
 10 62  1  0  0  0  0
 11 63  1  0  0  0  0
 11 64  1  0  0  0  0
 12 65  1  0  0  0  0
 12 66  1  0  0  0  0
 14 67  1  0  0  0  0
 15 68  1  0  0  0  0
 19 69  1  0  0  0  0
 23 70  1  0  0  0  0
 24 71  1  0  0  0  0
 26 72  1  0  0  0  0
 26 73  1  0  0  0  0
 27 74  1  0  0  0  0
 27 75  1  0  0  0  0
 28 76  1  0  0  0  0
 28 77  1  0  0  0  0
 29 78  1  0  0  0  0
 29 79  1  0  0  0  0
 30 80  1  0  0  0  0
 30 81  1  0  0  0  0
 31 82  1  0  0  0  0
 31 83  1  0  0  0  0
 32 84  1  0  0  0  0
 32 85  1  0  0  0  0
 33 86  1  0  0  0  0
 33 87  1  0  0  0  0
 34 88  1  0  0  0  0
 34 89  1  0  0  0  0
 35 90  1  0  0  0  0
 35 91  1  0  0  0  0
 36 92  1  0  0  0  0
 36 93  1  0  0  0  0
 37 94  1  0  0  0  0
 37 95  1  0  0  0  0
 37 96  1  0  0  0  0
 38 97  1  0  0  0  0
 39 98  1  0  0  0  0
 40 99  1  0  0  0  0
 41100  1  0  0  0  0
M  END
>  <id_input>
6156, 6157, 6158

>  <InChIKey>
KIHVMOUITFPOEI-UHFFFAOYSA-N

>  <substance_name>
zinc bis[bis(dodecylphenyl)] bis(dithiophosphate)

>  <casrn>
54261-67-5

>  <Molecular weight>
617.9483032226562

>  <guideline>
OECD Guideline 404 (Acute Dermal Irritation / Corrosion)

>  <species>
rabbit

>  <type_of_coverage>
semiocclusive

>  <max_duration(hrs)>
4.0

>  <vehicle>
unchanged (no vehicle)

>  <edema/ erythema score>
0.6611111111111111

>  <max_score>
4.0

>  <reversibility>
0.0

>  <Outcome>
0

>  <StandardizerResult>
Remove Explicit Hydrogens (ID: RemoveExplicitH)
Dearomatize (ID: Dearomatize)
Clear Stereo (ID: ClearStereo)
Wedge Clean (ID: WedgeClean)
Mesomerize (ID: Mesomerize)
Tautomerize (ID: Tautomerize)
Aromatize (ID: Aromatize)
Add Explicit Hydrogens (ID: AddExplicitH)
Neutralize (ID: Neutralize)
Clean 2D (ID: Clean2D)


$$$$

  Mrv1812 02121911042D          

 47 49  0  0  0  0            999 V2000
    2.4968    1.9628    0.0000 C   0  0  0  0  0  0  0  0  0  0  0  0
    1.7823    1.5503    0.0000 C   0  0  0  0  0  0  0  0  0  0  0  0
    1.0679    1.9628    0.0000 C   0  0  0  0  0  0  0  0  0  0  0  0
    0.3534    1.5503    0.0000 C   0  0  0  0  0  0  0  0  0  0  0  0
   -0.3611    1.9628    0.0000 C   0  0  0  0  0  0  0  0  0  0  0  0
   -1.0755    1.5503    0.0000 C   0  0  0  0  0  0  0  0  0  0  0  0
   -1.0755    0.7253    0.0000 C   0  0  0  0  0  0  0  0  0  0  0  0
   -0.3611    0.3128    0.0000 C   0  0  0  0  0  0  0  0  0  0  0  0
    0.3534    0.7253    0.0000 C   0  0  0  0  0  0  0  0  0  0  0  0
   -1.7900    0.3128    0.0000 C   0  0  0  0  0  0  0  0  0  0  0  0
   -2.5045    0.7253    0.0000 C   0  0  0  0  0  0  0  0  0  0  0  0
   -3.2190    0.3128    0.0000 C   0  0  0  0  0  0  0  0  0  0  0  0
   -3.2190   -0.5122    0.0000 C   0  0  0  0  0  0  0  0  0  0  0  0
   -2.5045   -0.9247    0.0000 C   0  0  0  0  0  0  0  0  0  0  0  0
   -1.7900   -0.5122    0.0000 C   0  0  0  0  0  0  0  0  0  0  0  0
   -1.0755   -0.9247    0.0000 F   0  0  0  0  0  0  0  0  0  0  0  0
   -2.5045   -1.7497    0.0000 F   0  0  0  0  0  0  0  0  0  0  0  0
   -3.9334   -0.9247    0.0000 C   0  0  0  0  0  0  0  0  0  0  0  0
   -4.6479   -0.5122    0.0000 C   0  0  0  0  0  0  0  0  0  0  0  0
   -5.3624   -0.9247    0.0000 C   0  0  0  0  0  0  0  0  0  0  0  0
   -5.3624   -1.7497    0.0000 C   0  0  0  0  0  0  0  0  0  0  0  0
   -4.6479   -2.1622    0.0000 C   0  0  0  0  0  0  0  0  0  0  0  0
   -3.9334   -1.7497    0.0000 C   0  0  0  0  0  0  0  0  0  0  0  0
   -6.0768   -2.1622    0.0000 C   0  0  0  0  0  0  0  0  0  0  0  0
   -6.0768   -2.9872    0.0000 C   0  0  0  0  0  0  0  0  0  0  0  0
    2.9093    1.2483    0.0000 H   0  0  0  0  0  0  0  0  0  0  0  0
    3.2113    2.3753    0.0000 H   0  0  0  0  0  0  0  0  0  0  0  0
    2.0843    2.6773    0.0000 H   0  0  0  0  0  0  0  0  0  0  0  0
    1.4121    0.8131    0.0000 H   0  0  0  0  0  0  0  0  0  0  0  0
    2.1526    0.8131    0.0000 H   0  0  0  0  0  0  0  0  0  0  0  0
    1.4381    2.7001    0.0000 H   0  0  0  0  0  0  0  0  0  0  0  0
    0.6976    2.7001    0.0000 H   0  0  0  0  0  0  0  0  0  0  0  0
   -0.3611    2.7878    0.0000 H   0  0  0  0  0  0  0  0  0  0  0  0
   -1.7900    1.9628    0.0000 H   0  0  0  0  0  0  0  0  0  0  0  0
   -0.3611   -0.5122    0.0000 H   0  0  0  0  0  0  0  0  0  0  0  0
    1.0679    0.3128    0.0000 H   0  0  0  0  0  0  0  0  0  0  0  0
   -2.5045    1.5503    0.0000 H   0  0  0  0  0  0  0  0  0  0  0  0
   -3.9334    0.7253    0.0000 H   0  0  0  0  0  0  0  0  0  0  0  0
   -4.6479    0.3128    0.0000 H   0  0  0  0  0  0  0  0  0  0  0  0
   -6.0768   -0.5122    0.0000 H   0  0  0  0  0  0  0  0  0  0  0  0
   -4.6479   -2.9872    0.0000 H   0  0  0  0  0  0  0  0  0  0  0  0
   -3.2190   -2.1622    0.0000 H   0  0  0  0  0  0  0  0  0  0  0  0
   -6.5302   -1.4729    0.0000 H   0  0  0  0  0  0  0  0  0  0  0  0
   -6.9004   -2.1142    0.0000 H   0  0  0  0  0  0  0  0  0  0  0  0
   -6.9018   -2.9872    0.0000 H   0  0  0  0  0  0  0  0  0  0  0  0
   -6.0768   -3.8122    0.0000 H   0  0  0  0  0  0  0  0  0  0  0  0
   -5.2518   -2.9872    0.0000 H   0  0  0  0  0  0  0  0  0  0  0  0
  1  2  1  0  0  0  0
  2  3  1  0  0  0  0
  3  4  1  0  0  0  0
  5  4  4  0  0  0  0
  6  5  4  0  0  0  0
  7  6  4  0  0  0  0
  8  7  4  0  0  0  0
  9  8  4  0  0  0  0
  7 10  1  0  0  0  0
 11 10  4  0  0  0  0
 12 11  4  0  0  0  0
 13 12  4  0  0  0  0
 14 13  4  0  0  0  0
 15 14  4  0  0  0  0
 15 16  1  0  0  0  0
 14 17  1  0  0  0  0
 13 18  1  0  0  0  0
 19 18  4  0  0  0  0
 20 19  4  0  0  0  0
 21 20  4  0  0  0  0
 22 21  4  0  0  0  0
 23 22  4  0  0  0  0
 21 24  1  0  0  0  0
 24 25  1  0  0  0  0
  4  9  4  0  0  0  0
 10 15  4  0  0  0  0
 18 23  4  0  0  0  0
  1 26  1  0  0  0  0
  1 27  1  0  0  0  0
  1 28  1  0  0  0  0
  2 29  1  0  0  0  0
  2 30  1  0  0  0  0
  3 31  1  0  0  0  0
  3 32  1  0  0  0  0
  5 33  1  0  0  0  0
  6 34  1  0  0  0  0
  8 35  1  0  0  0  0
  9 36  1  0  0  0  0
 11 37  1  0  0  0  0
 12 38  1  0  0  0  0
 19 39  1  0  0  0  0
 20 40  1  0  0  0  0
 22 41  1  0  0  0  0
 23 42  1  0  0  0  0
 24 43  1  0  0  0  0
 24 44  1  0  0  0  0
 25 45  1  0  0  0  0
 25 46  1  0  0  0  0
 25 47  1  0  0  0  0
M  END
>  <id_input>
5322

>  <InChIKey>
ALSCPZRLSDLPES-UHFFFAOYSA-N

>  <substance_name>
unnamed [157248-25-4]

>  <casrn>
157248-25-4

>  <Molecular weight>
336.4176025390625

>  <guideline>
OECD Guideline 404 (Acute Dermal Irritation / Corrosion)

>  <species>
rabbit

>  <type_of_coverage>
semiocclusive

>  <max_duration(hrs)>
4.0

>  <vehicle>
water

>  <edema/ erythema score>
0.0

>  <reversibility>
0.0

>  <Outcome>
0

>  <StandardizerResult>
Remove Explicit Hydrogens (ID: RemoveExplicitH)
Dearomatize (ID: Dearomatize)
Clear Stereo (ID: ClearStereo)
Wedge Clean (ID: WedgeClean)
Mesomerize (ID: Mesomerize)
Tautomerize (ID: Tautomerize)
Aromatize (ID: Aromatize)
Add Explicit Hydrogens (ID: AddExplicitH)
Neutralize (ID: Neutralize)
Clean 2D (ID: Clean2D)


$$$$

  Mrv1812 02121911042D          

 53 54  0  0  0  0            999 V2000
    1.8264   -1.7458    0.0000 C   0  0  0  0  0  0  0  0  0  0  0  0
    1.1120   -2.1583    0.0000 C   0  0  0  0  0  0  0  0  0  0  0  0
    1.1120   -2.9833    0.0000 C   0  0  0  0  0  0  0  0  0  0  0  0
    0.3975   -3.3958    0.0000 C   0  0  0  0  0  0  0  0  0  0  0  0
    0.3975   -4.2208    0.0000 C   0  0  0  0  0  0  0  0  0  0  0  0
    1.1120   -4.6333    0.0000 C   0  0  0  0  0  0  0  0  0  0  0  0
    1.8264   -4.2208    0.0000 C   0  0  0  0  0  0  0  0  0  0  0  0
    1.8264   -3.3958    0.0000 C   0  0  0  0  0  0  0  0  0  0  0  0
    2.2636   -4.9205    0.0000 C   0  0  0  0  0  0  0  0  0  0  0  0
    2.6509   -4.2496    0.0000 C   0  0  0  0  0  0  0  0  0  0  0  0
    0.3975   -1.7458    0.0000 O   0  0  0  0  0  0  0  0  0  0  0  0
    0.3975   -0.9208    0.0000 C   0  0  0  0  0  0  0  0  0  0  0  0
    1.2225   -0.9208    0.0000 C   0  0  0  0  0  0  0  0  0  0  0  0
   -0.4275   -0.9208    0.0000 C   0  0  0  0  0  0  0  0  0  0  0  0
    0.3975   -0.0958    0.0000 C   0  0  0  0  0  0  0  0  0  0  0  0
   -0.3170    0.3167    0.0000 O   0  0  0  0  0  0  0  0  0  0  0  0
   -0.3170    1.1417    0.0000 C   0  0  0  0  0  0  0  0  0  0  0  0
    0.3975    1.5542    0.0000 O   0  0  0  0  0  0  0  0  0  0  0  0
   -1.0315    1.5542    0.0000 C   0  0  0  0  0  0  0  0  0  0  0  0
   -1.4440    2.2686    0.0000 C   0  0  0  0  0  0  0  0  0  0  0  0
   -1.8565    1.5542    0.0000 C   0  0  0  0  0  0  0  0  0  0  0  0
    2.2389   -2.4603    0.0000 H   0  0  0  0  0  0  0  0  0  0  0  0
    2.5409   -1.3333    0.0000 H   0  0  0  0  0  0  0  0  0  0  0  0
    1.4139   -1.0314    0.0000 H   0  0  0  0  0  0  0  0  0  0  0  0
    1.8264   -2.5708    0.0000 H   0  0  0  0  0  0  0  0  0  0  0  0
    0.3975   -2.5708    0.0000 H   0  0  0  0  0  0  0  0  0  0  0  0
   -0.3778   -3.1137    0.0000 H   0  0  0  0  0  0  0  0  0  0  0  0
   -0.3778   -3.6780    0.0000 H   0  0  0  0  0  0  0  0  0  0  0  0
   -0.2619   -4.7167    0.0000 H   0  0  0  0  0  0  0  0  0  0  0  0
    0.2267   -5.0280    0.0000 H   0  0  0  0  0  0  0  0  0  0  0  0
    1.2032   -5.4533    0.0000 H   0  0  0  0  0  0  0  0  0  0  0  0
    1.7219   -5.1888    0.0000 H   0  0  0  0  0  0  0  0  0  0  0  0
    2.6017   -3.6780    0.0000 H   0  0  0  0  0  0  0  0  0  0  0  0
    2.6017   -3.1137    0.0000 H   0  0  0  0  0  0  0  0  0  0  0  0
    2.1170   -5.7324    0.0000 H   0  0  0  0  0  0  0  0  0  0  0  0
    2.8281   -5.5221    0.0000 H   0  0  0  0  0  0  0  0  0  0  0  0
    3.0832   -4.8258    0.0000 H   0  0  0  0  0  0  0  0  0  0  0  0
    3.4435   -4.4786    0.0000 H   0  0  0  0  0  0  0  0  0  0  0  0
    3.4216   -3.9553    0.0000 H   0  0  0  0  0  0  0  0  0  0  0  0
    3.0892   -3.5507    0.0000 H   0  0  0  0  0  0  0  0  0  0  0  0
    1.7342   -0.2737    0.0000 H   0  0  0  0  0  0  0  0  0  0  0  0
    1.1029   -0.1046    0.0000 H   0  0  0  0  0  0  0  0  0  0  0  0
    1.0090   -1.7177    0.0000 H   0  0  0  0  0  0  0  0  0  0  0  0
   -0.4275   -0.0958    0.0000 H   0  0  0  0  0  0  0  0  0  0  0  0
   -1.2525   -0.9208    0.0000 H   0  0  0  0  0  0  0  0  0  0  0  0
   -0.4275   -1.7458    0.0000 H   0  0  0  0  0  0  0  0  0  0  0  0
    0.9330    0.5318    0.0000 H   0  0  0  0  0  0  0  0  0  0  0  0
    0.2576    0.7172    0.0000 H   0  0  0  0  0  0  0  0  0  0  0  0
   -0.4481    2.1375    0.0000 H   0  0  0  0  0  0  0  0  0  0  0  0
   -0.9906    2.9579    0.0000 H   0  0  0  0  0  0  0  0  0  0  0  0
   -1.8973    2.9579    0.0000 H   0  0  0  0  0  0  0  0  0  0  0  0
   -2.6801    1.6021    0.0000 H   0  0  0  0  0  0  0  0  0  0  0  0
   -2.2267    0.8169    0.0000 H   0  0  0  0  0  0  0  0  0  0  0  0
  1  2  1  0  0  0  0
  2  3  1  0  0  0  0
  4  3  1  0  0  0  0
  5  4  1  0  0  0  0
  6  5  1  0  0  0  0
  7  6  1  0  0  0  0
  8  7  1  0  0  0  0
  7  9  1  0  0  0  0
  7 10  1  0  0  0  0
  2 11  1  0  0  0  0
 11 12  1  0  0  0  0
 12 13  1  0  0  0  0
 12 14  1  0  0  0  0
 12 15  1  0  0  0  0
 15 16  1  0  0  0  0
 16 17  1  0  0  0  0
 17 18  2  0  0  0  0
 17 19  1  0  0  0  0
 20 19  1  0  0  0  0
 21 20  1  0  0  0  0
  3  8  1  0  0  0  0
 19 21  1  0  0  0  0
  1 22  1  0  0  0  0
  1 23  1  0  0  0  0
  1 24  1  0  0  0  0
  2 25  1  0  0  0  0
  3 26  1  0  0  0  0
  4 27  1  0  0  0  0
  4 28  1  0  0  0  0
  5 29  1  0  0  0  0
  5 30  1  0  0  0  0
  6 31  1  0  0  0  0
  6 32  1  0  0  0  0
  8 33  1  0  0  0  0
  8 34  1  0  0  0  0
  9 35  1  0  0  0  0
  9 36  1  0  0  0  0
  9 37  1  0  0  0  0
 10 38  1  0  0  0  0
 10 39  1  0  0  0  0
 10 40  1  0  0  0  0
 13 41  1  0  0  0  0
 13 42  1  0  0  0  0
 13 43  1  0  0  0  0
 14 44  1  0  0  0  0
 14 45  1  0  0  0  0
 14 46  1  0  0  0  0
 15 47  1  0  0  0  0
 15 48  1  0  0  0  0
 19 49  1  0  0  0  0
 20 50  1  0  0  0  0
 20 51  1  0  0  0  0
 21 52  1  0  0  0  0
 21 53  1  0  0  0  0
M  END
>  <id_input>
962

>  <InChIKey>
BZLYOWSSNHNYKW-UHFFFAOYSA-N

>  <substance_name>
-

>  <casrn>
477218-42-1

>  <Molecular weight>
296.44488525390625

>  <guideline>
OECD Guideline 404 (Acute Dermal Irritation / Corrosion)

>  <species>
rabbit

>  <type_of_coverage>
semiocclusive

>  <max_duration(hrs)>
4.0

>  <vehicle>
unchanged (no vehicle)

>  <edema/ erythema score>
1.0

>  <max_score>
1.0

>  <reversibility>
0.0

>  <Outcome>
0

>  <StandardizerResult>
Remove Explicit Hydrogens (ID: RemoveExplicitH)
Clear Stereo (ID: ClearStereo)
Wedge Clean (ID: WedgeClean)
Mesomerize (ID: Mesomerize)
Tautomerize (ID: Tautomerize)
Add Explicit Hydrogens (ID: AddExplicitH)
Neutralize (ID: Neutralize)
Clean 2D (ID: Clean2D)


$$$$

  Mrv1812 02121911042D          

 30 32  0  0  0  0            999 V2000
    1.3000   -1.3062    0.0000 O   0  0  0  0  0  0  0  0  0  0  0  0
    0.5855   -0.8937    0.0000 C   0  0  0  0  0  0  0  0  0  0  0  0
    0.5855   -0.0687    0.0000 N   0  0  0  0  0  0  0  0  0  0  0  0
   -0.1290    0.3438    0.0000 C   0  0  0  0  0  0  0  0  0  0  0  0
   -0.8434   -0.0687    0.0000 N   0  0  0  0  0  0  0  0  0  0  0  0
   -0.8434   -0.8937    0.0000 C   0  0  0  0  0  0  0  0  0  0  0  0
   -0.1290   -1.3062    0.0000 N   0  0  0  0  0  0  0  0  0  0  0  0
   -1.5579   -1.3062    0.0000 C   0  0  0  0  0  0  0  0  0  0  0  0
   -2.2724   -0.8937    0.0000 C   0  0  0  0  0  0  0  0  0  0  0  0
   -2.9868   -1.3062    0.0000 C   0  0  0  0  0  0  0  0  0  0  0  0
   -2.9868   -2.1312    0.0000 C   0  0  0  0  0  0  0  0  0  0  0  0
   -2.2724   -2.5437    0.0000 C   0  0  0  0  0  0  0  0  0  0  0  0
   -1.5579   -2.1312    0.0000 C   0  0  0  0  0  0  0  0  0  0  0  0
   -0.1290    1.1688    0.0000 C   0  0  0  0  0  0  0  0  0  0  0  0
    0.5855    1.5813    0.0000 C   0  0  0  0  0  0  0  0  0  0  0  0
    0.5855    2.4063    0.0000 C   0  0  0  0  0  0  0  0  0  0  0  0
   -0.1290    2.8188    0.0000 C   0  0  0  0  0  0  0  0  0  0  0  0
   -0.8434    2.4063    0.0000 C   0  0  0  0  0  0  0  0  0  0  0  0
   -0.8434    1.5813    0.0000 C   0  0  0  0  0  0  0  0  0  0  0  0
   -1.5579    0.3438    0.0000 H   0  0  0  0  0  0  0  0  0  0  0  0
   -2.2724   -0.0687    0.0000 H   0  0  0  0  0  0  0  0  0  0  0  0
   -3.7013   -0.8937    0.0000 H   0  0  0  0  0  0  0  0  0  0  0  0
   -3.7013   -2.5437    0.0000 H   0  0  0  0  0  0  0  0  0  0  0  0
   -2.2724   -3.3687    0.0000 H   0  0  0  0  0  0  0  0  0  0  0  0
   -0.8434   -2.5437    0.0000 H   0  0  0  0  0  0  0  0  0  0  0  0
    1.3000    1.1688    0.0000 H   0  0  0  0  0  0  0  0  0  0  0  0
    1.3000    2.8188    0.0000 H   0  0  0  0  0  0  0  0  0  0  0  0
   -0.1290    3.6438    0.0000 H   0  0  0  0  0  0  0  0  0  0  0  0
   -1.5579    2.8188    0.0000 H   0  0  0  0  0  0  0  0  0  0  0  0
   -1.5579    1.1688    0.0000 H   0  0  0  0  0  0  0  0  0  0  0  0
  1  2  2  0  0  0  0
  3  2  1  0  0  0  0
  4  3  2  0  0  0  0
  5  4  1  0  0  0  0
  6  5  1  0  0  0  0
  7  6  2  0  0  0  0
  6  8  1  0  0  0  0
  9  8  4  0  0  0  0
 10  9  4  0  0  0  0
 11 10  4  0  0  0  0
 12 11  4  0  0  0  0
 13 12  4  0  0  0  0
  4 14  1  0  0  0  0
 15 14  4  0  0  0  0
 16 15  4  0  0  0  0
 17 16  4  0  0  0  0
 18 17  4  0  0  0  0
 19 18  4  0  0  0  0
  2  7  1  0  0  0  0
  8 13  4  0  0  0  0
 14 19  4  0  0  0  0
  5 20  1  0  0  0  0
  9 21  1  0  0  0  0
 10 22  1  0  0  0  0
 11 23  1  0  0  0  0
 12 24  1  0  0  0  0
 13 25  1  0  0  0  0
 15 26  1  0  0  0  0
 16 27  1  0  0  0  0
 17 28  1  0  0  0  0
 18 29  1  0  0  0  0
 19 30  1  0  0  0  0
M  END
>  <id_input>
863

>  <InChIKey>
KODLDJGSBFMSDG-UHFFFAOYSA-N

>  <substance_name>
-

>  <casrn>
1917-44-8

>  <Molecular weight>
249.26734924316406

>  <guideline>
OECD Guideline 404 (Acute Dermal Irritation / Corrosion)

>  <species>
rabbit

>  <type_of_coverage>
occlusive

>  <max_duration(hrs)>
4.0

>  <vehicle>
other: 0.5% (w/v) carboxymethylcellulose in 0.1% (w/v) aqueous polysorbate 80

>  <edema/ erythema score>
0.0

>  <max_score>
4.0

>  <reversibility>
0.0

>  <Outcome>
0

>  <StandardizerResult>
Remove Explicit Hydrogens (ID: RemoveExplicitH)
Dearomatize (ID: Dearomatize)
Clear Stereo (ID: ClearStereo)
Wedge Clean (ID: WedgeClean)
Mesomerize (ID: Mesomerize)
Tautomerize (ID: Tautomerize)
Aromatize (ID: Aromatize)
Add Explicit Hydrogens (ID: AddExplicitH)
Neutralize (ID: Neutralize)
Clean 2D (ID: Clean2D)


$$$$

  Mrv1812 02121911042D          

 17 18  0  0  0  0            999 V2000
   -2.4092    0.3641    0.0000 F   0  0  0  0  0  0  0  0  0  0  0  0
   -1.7961   -0.1879    0.0000 C   0  0  0  0  0  0  0  0  0  0  0  0
   -2.4092   -0.7399    0.0000 F   0  0  0  0  0  0  0  0  0  0  0  0
   -1.3112    0.4795    0.0000 O   0  0  0  0  0  0  0  0  0  0  0  0
   -0.5266    0.2246    0.0000 C   0  0  0  0  0  0  0  0  0  0  0  0
    0.1879    0.6371    0.0000 C   0  0  0  0  0  0  0  0  0  0  0  0
    0.9023    0.2246    0.0000 C   0  0  0  0  0  0  0  0  0  0  0  0
    0.9023   -0.6004    0.0000 C   0  0  0  0  0  0  0  0  0  0  0  0
    0.1879   -1.0129    0.0000 C   0  0  0  0  0  0  0  0  0  0  0  0
    0.1879   -1.8379    0.0000 C   0  0  0  0  0  0  0  0  0  0  0  0
    0.9023   -2.2504    0.0000 O   0  0  0  0  0  0  0  0  0  0  0  0
   -0.5266   -0.6004    0.0000 C   0  0  0  0  0  0  0  0  0  0  0  0
   -1.3112   -0.8553    0.0000 O   0  0  0  0  0  0  0  0  0  0  0  0
    0.1879    1.4621    0.0000 H   0  0  0  0  0  0  0  0  0  0  0  0
    1.6168    0.6371    0.0000 H   0  0  0  0  0  0  0  0  0  0  0  0
    1.6168   -1.0129    0.0000 H   0  0  0  0  0  0  0  0  0  0  0  0
   -0.5266   -2.2504    0.0000 H   0  0  0  0  0  0  0  0  0  0  0  0
  1  2  1  0  0  0  0
  2  3  1  0  0  0  0
  4  2  1  0  0  0  0
  5  4  1  0  0  0  0
  5  6  4  0  0  0  0
  6  7  4  0  0  0  0
  7  8  4  0  0  0  0
  8  9  4  0  0  0  0
  9 10  1  0  0  0  0
 10 11  2  0  0  0  0
  9 12  4  0  0  0  0
 13 12  1  0  0  0  0
  2 13  1  0  0  0  0
 12  5  4  0  0  0  0
  6 14  1  0  0  0  0
  7 15  1  0  0  0  0
  8 16  1  0  0  0  0
 10 17  1  0  0  0  0
M  END
>  <id_input>
1401

>  <InChIKey>
NIBFJPXGNVPNHK-UHFFFAOYSA-N

>  <substance_name>
-

>  <casrn>
119895-68-0

>  <Molecular weight>
186.11236572265625

>  <guideline>
OECD Guideline 404 (Acute Dermal Irritation / Corrosion)

>  <species>
rabbit

>  <type_of_coverage>
occlusive

>  <max_duration(hrs)>
4.0

>  <vehicle>
unchanged (no vehicle)

>  <edema/ erythema score>
1.4425

>  <max_score>
4.0

>  <reversibility>
0.0

>  <Outcome>
0

>  <StandardizerResult>
Remove Explicit Hydrogens (ID: RemoveExplicitH)
Dearomatize (ID: Dearomatize)
Clear Stereo (ID: ClearStereo)
Wedge Clean (ID: WedgeClean)
Mesomerize (ID: Mesomerize)
Tautomerize (ID: Tautomerize)
Aromatize (ID: Aromatize)
Add Explicit Hydrogens (ID: AddExplicitH)
Neutralize (ID: Neutralize)
Clean 2D (ID: Clean2D)


$$$$

  Mrv1812 02121911042D          

 38 39  0  0  0  0            999 V2000
   -1.4158   -2.0614    0.0000 C   0  0  0  0  0  0  0  0  0  0  0  0
   -0.7013   -1.6489    0.0000 O   0  0  0  0  0  0  0  0  0  0  0  0
   -0.7013   -0.8239    0.0000 C   0  0  0  0  0  0  0  0  0  0  0  0
   -1.4158   -0.4114    0.0000 O   0  0  0  0  0  0  0  0  0  0  0  0
    0.0132   -0.4114    0.0000 C   0  0  0  0  0  0  0  0  0  0  0  0
    0.0132    0.4136    0.0000 C   0  0  0  0  0  0  0  0  0  0  0  0
    0.7276    0.8261    0.0000 C   0  0  0  0  0  0  0  0  0  0  0  0
    1.4421    0.4136    0.0000 C   0  0  0  0  0  0  0  0  0  0  0  0
    1.4421   -0.4114    0.0000 C   0  0  0  0  0  0  0  0  0  0  0  0
    0.7276   -0.8239    0.0000 C   0  0  0  0  0  0  0  0  0  0  0  0
    0.7276   -1.6489    0.0000 C   0  0  0  0  0  0  0  0  0  0  0  0
    0.5901   -0.2739    0.0000 C   0  0  0  0  0  0  0  0  0  0  0  0
    0.5901    0.2761    0.0000 C   0  0  0  0  0  0  0  0  0  0  0  0
    0.7276    1.6511    0.0000 C   0  0  0  0  0  0  0  0  0  0  0  0
    0.0132    2.0636    0.0000 C   0  0  0  0  0  0  0  0  0  0  0  0
    1.4421    2.0636    0.0000 C   0  0  0  0  0  0  0  0  0  0  0  0
   -1.8283   -1.3469    0.0000 H   0  0  0  0  0  0  0  0  0  0  0  0
   -2.1303   -2.4739    0.0000 H   0  0  0  0  0  0  0  0  0  0  0  0
   -1.0033   -2.7759    0.0000 H   0  0  0  0  0  0  0  0  0  0  0  0
   -0.7013    0.0011    0.0000 H   0  0  0  0  0  0  0  0  0  0  0  0
   -0.1301    1.2261    0.0000 H   0  0  0  0  0  0  0  0  0  0  0  0
   -0.6188    0.9439    0.0000 H   0  0  0  0  0  0  0  0  0  0  0  0
    2.2657    0.4616    0.0000 H   0  0  0  0  0  0  0  0  0  0  0  0
    1.8954    1.1029    0.0000 H   0  0  0  0  0  0  0  0  0  0  0  0
    1.8954   -1.1007    0.0000 H   0  0  0  0  0  0  0  0  0  0  0  0
    2.2657   -0.4594    0.0000 H   0  0  0  0  0  0  0  0  0  0  0  0
   -0.0974   -1.6489    0.0000 H   0  0  0  0  0  0  0  0  0  0  0  0
    0.7276   -2.4739    0.0000 H   0  0  0  0  0  0  0  0  0  0  0  0
    1.5526   -1.6489    0.0000 H   0  0  0  0  0  0  0  0  0  0  0  0
    1.2183    0.2610    0.0000 H   0  0  0  0  0  0  0  0  0  0  0  0
    0.3079   -0.4991    0.0000 H   0  0  0  0  0  0  0  0  0  0  0  0
    0.7276    2.4761    0.0000 H   0  0  0  0  0  0  0  0  0  0  0  0
    0.0481    2.8879    0.0000 H   0  0  0  0  0  0  0  0  0  0  0  0
   -0.6639    2.5351    0.0000 H   0  0  0  0  0  0  0  0  0  0  0  0
   -0.7478    1.7450    0.0000 H   0  0  0  0  0  0  0  0  0  0  0  0
    1.6556    1.2667    0.0000 H   0  0  0  0  0  0  0  0  0  0  0  0
    2.2671    2.0636    0.0000 H   0  0  0  0  0  0  0  0  0  0  0  0
    1.6556    2.8605    0.0000 H   0  0  0  0  0  0  0  0  0  0  0  0
  1  2  1  0  0  0  0
  2  3  1  0  0  0  0
  3  4  2  0  0  0  0
  3  5  1  0  0  0  0
  6  5  1  0  0  0  0
  7  6  1  0  0  0  0
  7  8  1  0  0  0  0
  8  9  1  0  0  0  0
  9 10  1  0  0  0  0
 10 11  1  0  0  0  0
 10 12  1  0  0  0  0
 12 13  2  0  0  0  0
  7 14  1  0  0  0  0
 14 15  1  0  0  0  0
 14 16  1  0  0  0  0
  5 10  1  0  0  0  0
 13  7  1  0  0  0  0
  1 17  1  0  0  0  0
  1 18  1  0  0  0  0
  1 19  1  0  0  0  0
  5 20  1  0  0  0  0
  6 21  1  0  0  0  0
  6 22  1  0  0  0  0
  8 23  1  0  0  0  0
  8 24  1  0  0  0  0
  9 25  1  0  0  0  0
  9 26  1  0  0  0  0
 11 27  1  0  0  0  0
 11 28  1  0  0  0  0
 11 29  1  0  0  0  0
 12 30  1  0  0  0  0
 13 31  1  0  0  0  0
 14 32  1  0  0  0  0
 15 33  1  0  0  0  0
 15 34  1  0  0  0  0
 15 35  1  0  0  0  0
 16 36  1  0  0  0  0
 16 37  1  0  0  0  0
 16 38  1  0  0  0  0
M  END
>  <id_input>
4533

>  <InChIKey>
NXAJZPARDMDLKH-UHFFFAOYSA-N

>  <substance_name>
methyl 1-methyl-4-(propan-2-yl)bicyclo[2.2.2]oct-5-ene-2-carboxylate

>  <casrn>
68966-86-9

>  <Molecular weight>
222.3232879638672

>  <guideline>
other: ICH Guideline E6

>  <species>
human

>  <type_of_coverage>
occlusive

>  <max_duration(hrs)>
48.0

>  <vehicle>
unchanged (no vehicle)

>  <edema/ erythema score>
0.0

>  <max_score>
0.0

>  <reversibility>
0.0

>  <Outcome>
0

>  <StandardizerResult>
Remove Explicit Hydrogens (ID: RemoveExplicitH)
Clear Stereo (ID: ClearStereo)
Wedge Clean (ID: WedgeClean)
Mesomerize (ID: Mesomerize)
Tautomerize (ID: Tautomerize)
Add Explicit Hydrogens (ID: AddExplicitH)
Neutralize (ID: Neutralize)
Clean 2D (ID: Clean2D)


$$$$

  Mrv1812 02121911042D          

 18 18  0  0  0  0            999 V2000
    2.1177    0.2705    0.0000 N   0  0  0  0  0  0  0  0  0  0  0  0
    1.4032    0.6830    0.0000 C   0  0  0  0  0  0  0  0  0  0  0  0
    1.4032    1.5080    0.0000 O   0  0  0  0  0  0  0  0  0  0  0  0
    0.6887    0.2705    0.0000 C   0  0  0  0  0  0  0  0  0  0  0  0
   -0.0258    0.6830    0.0000 C   0  0  0  0  0  0  0  0  0  0  0  0
   -0.7402    0.2705    0.0000 C   0  0  0  0  0  0  0  0  0  0  0  0
   -0.7402   -0.5545    0.0000 C   0  0  0  0  0  0  0  0  0  0  0  0
   -1.4547   -0.9670    0.0000 N   0  0  0  0  0  0  0  0  0  0  0  0
   -0.0258   -0.9670    0.0000 C   0  0  0  0  0  0  0  0  0  0  0  0
    0.6887   -0.5545    0.0000 C   0  0  0  0  0  0  0  0  0  0  0  0
    2.1177   -0.5545    0.0000 H   0  0  0  0  0  0  0  0  0  0  0  0
    2.8321    0.6830    0.0000 H   0  0  0  0  0  0  0  0  0  0  0  0
   -0.0258    1.5080    0.0000 H   0  0  0  0  0  0  0  0  0  0  0  0
   -1.4547    0.6830    0.0000 H   0  0  0  0  0  0  0  0  0  0  0  0
   -2.1692   -0.5545    0.0000 H   0  0  0  0  0  0  0  0  0  0  0  0
   -1.4547   -1.7920    0.0000 H   0  0  0  0  0  0  0  0  0  0  0  0
   -0.0258   -1.7920    0.0000 H   0  0  0  0  0  0  0  0  0  0  0  0
    1.4032   -0.9670    0.0000 H   0  0  0  0  0  0  0  0  0  0  0  0
  1  2  1  0  0  0  0
  2  3  2  0  0  0  0
  2  4  1  0  0  0  0
  5  4  4  0  0  0  0
  6  5  4  0  0  0  0
  7  6  4  0  0  0  0
  7  8  1  0  0  0  0
  9  7  4  0  0  0  0
 10  9  4  0  0  0  0
  4 10  4  0  0  0  0
  1 11  1  0  0  0  0
  1 12  1  0  0  0  0
  5 13  1  0  0  0  0
  6 14  1  0  0  0  0
  8 15  1  0  0  0  0
  8 16  1  0  0  0  0
  9 17  1  0  0  0  0
 10 18  1  0  0  0  0
M  END
>  <id_input>
2881

>  <InChIKey>
QIKYZXDTTPVVAC-UHFFFAOYSA-N

>  <substance_name>
4-aminobenzamide

>  <casrn>
2835-68-9

>  <Molecular weight>
136.15121459960938

>  <guideline>
OECD Guideline 404 (Acute Dermal Irritation / Corrosion)

>  <species>
rabbit

>  <type_of_coverage>
semiocclusive

>  <max_duration(hrs)>
4.0

>  <vehicle>
other: physiol. saline

>  <edema/ erythema score>
0.0

>  <max_score>
4.0

>  <reversibility>
0.0

>  <Outcome>
0

>  <StandardizerResult>
Remove Explicit Hydrogens (ID: RemoveExplicitH)
Dearomatize (ID: Dearomatize)
Clear Stereo (ID: ClearStereo)
Wedge Clean (ID: WedgeClean)
Mesomerize (ID: Mesomerize)
Tautomerize (ID: Tautomerize)
Aromatize (ID: Aromatize)
Add Explicit Hydrogens (ID: AddExplicitH)
Neutralize (ID: Neutralize)
Clean 2D (ID: Clean2D)


$$$$

  Mrv1812 02121911042D          

 30 30  0  0  0  0            999 V2000
    2.2818    0.6782    0.0000 C   0  0  0  0  0  0  0  0  0  0  0  0
    1.7515    0.0462    0.0000 C   0  0  0  0  0  0  0  0  0  0  0  0
    0.9391    0.1895    0.0000 C   0  0  0  0  0  0  0  0  0  0  0  0
    0.2246    0.6020    0.0000 C   0  0  0  0  0  0  0  0  0  0  0  0
   -0.4899    0.1895    0.0000 O   0  0  0  0  0  0  0  0  0  0  0  0
   -0.4899   -0.6355    0.0000 C   0  0  0  0  0  0  0  0  0  0  0  0
    0.2246   -1.0480    0.0000 O   0  0  0  0  0  0  0  0  0  0  0  0
    0.9391   -0.6355    0.0000 C   0  0  0  0  0  0  0  0  0  0  0  0
   -1.3144   -0.6643    0.0000 C   0  0  0  0  0  0  0  0  0  0  0  0
   -0.9271   -1.3352    0.0000 C   0  0  0  0  0  0  0  0  0  0  0  0
    1.2212    0.9647    0.0000 C   0  0  0  0  0  0  0  0  0  0  0  0
    0.6909    1.5967    0.0000 O   0  0  0  0  0  0  0  0  0  0  0  0
    2.9138    0.1479    0.0000 H   0  0  0  0  0  0  0  0  0  0  0  0
    2.8121    1.3102    0.0000 H   0  0  0  0  0  0  0  0  0  0  0  0
    1.6498    1.2085    0.0000 H   0  0  0  0  0  0  0  0  0  0  0  0
    1.6557   -0.7732    0.0000 H   0  0  0  0  0  0  0  0  0  0  0  0
    2.3516   -0.5199    0.0000 H   0  0  0  0  0  0  0  0  0  0  0  0
    0.5948    1.3392    0.0000 H   0  0  0  0  0  0  0  0  0  0  0  0
   -0.1457    1.3392    0.0000 H   0  0  0  0  0  0  0  0  0  0  0  0
    1.0761   -1.4491    0.0000 H   0  0  0  0  0  0  0  0  0  0  0  0
    0.2246   -0.2230    0.0000 H   0  0  0  0  0  0  0  0  0  0  0  0
   -1.1218    0.1379    0.0000 H   0  0  0  0  0  0  0  0  0  0  0  0
   -2.0359   -0.2643    0.0000 H   0  0  0  0  0  0  0  0  0  0  0  0
   -1.8926   -1.2527    0.0000 H   0  0  0  0  0  0  0  0  0  0  0  0
   -1.3903   -2.0178    0.0000 H   0  0  0  0  0  0  0  0  0  0  0  0
   -0.5582   -2.0731    0.0000 H   0  0  0  0  0  0  0  0  0  0  0  0
   -0.1030   -1.3743    0.0000 H   0  0  0  0  0  0  0  0  0  0  0  0
    1.5899    0.2267    0.0000 H   0  0  0  0  0  0  0  0  0  0  0  0
    2.0105    0.7247    0.0000 H   0  0  0  0  0  0  0  0  0  0  0  0
    0.9245    2.3880    0.0000 H   0  0  0  0  0  0  0  0  0  0  0  0
  1  2  1  0  0  0  0
  2  3  1  0  0  0  0
  4  3  1  0  0  0  0
  5  4  1  0  0  0  0
  6  5  1  0  0  0  0
  7  6  1  0  0  0  0
  8  7  1  0  0  0  0
  6  9  1  0  0  0  0
  6 10  1  0  0  0  0
  3 11  1  0  0  0  0
 11 12  1  0  0  0  0
  3  8  1  0  0  0  0
  1 13  1  0  0  0  0
  1 14  1  0  0  0  0
  1 15  1  0  0  0  0
  2 16  1  0  0  0  0
  2 17  1  0  0  0  0
  4 18  1  0  0  0  0
  4 19  1  0  0  0  0
  8 20  1  0  0  0  0
  8 21  1  0  0  0  0
  9 22  1  0  0  0  0
  9 23  1  0  0  0  0
  9 24  1  0  0  0  0
 10 25  1  0  0  0  0
 10 26  1  0  0  0  0
 10 27  1  0  0  0  0
 11 28  1  0  0  0  0
 11 29  1  0  0  0  0
 12 30  1  0  0  0  0
M  END
>  <id_input>
5358

>  <InChIKey>
RUUJECRHYIYRSH-UHFFFAOYSA-N

>  <substance_name>
unnamed [20761-68-6]

>  <casrn>
20761-68-6

>  <Molecular weight>
174.2374267578125

>  <guideline>
OECD Guideline 404 (Acute Dermal Irritation / Corrosion)

>  <species>
rabbit

>  <type_of_coverage>
semiocclusive

>  <max_duration(hrs)>
4.0

>  <vehicle>
unchanged (no vehicle)

>  <edema/ erythema score>
0.3

>  <max_score>
1.0

>  <reversibility>
0.0

>  <Outcome>
0

>  <StandardizerResult>
Remove Explicit Hydrogens (ID: RemoveExplicitH)
Clear Stereo (ID: ClearStereo)
Wedge Clean (ID: WedgeClean)
Mesomerize (ID: Mesomerize)
Tautomerize (ID: Tautomerize)
Add Explicit Hydrogens (ID: AddExplicitH)
Neutralize (ID: Neutralize)
Clean 2D (ID: Clean2D)


$$$$

  Mrv1812 02121911042D          

 26 25  0  0  0  0            999 V2000
    0.0003   -0.0041    0.0000 C   0  0  0  0  0  0  0  0  0  0  0  0
    0.7147    0.4084    0.0000 C   0  0  0  0  0  0  0  0  0  0  0  0
    1.4292   -0.0041    0.0000 C   0  0  0  0  0  0  0  0  0  0  0  0
    2.1437    0.4084    0.0000 C   0  0  0  0  0  0  0  0  0  0  0  0
    2.8581   -0.0041    0.0000 O   0  0  0  0  0  0  0  0  0  0  0  0
    3.5726    0.4084    0.0000 C   0  0  0  0  0  0  0  0  0  0  0  0
    4.2871   -0.0041    0.0000 N   0  0  0  0  0  0  0  0  0  0  0  0
    5.0016    0.4084    0.0000 C   0  0  0  0  0  0  0  0  0  0  0  0
    5.0016    1.2334    0.0000 O   0  0  0  0  0  0  0  0  0  0  0  0
    5.7160   -0.0041    0.0000 C   0  0  0  0  0  0  0  0  0  0  0  0
    6.4305    0.4084    0.0000 C   0  0  0  0  0  0  0  0  0  0  0  0
   -0.4122    0.7104    0.0000 H   0  0  0  0  0  0  0  0  0  0  0  0
   -0.7142   -0.4166    0.0000 H   0  0  0  0  0  0  0  0  0  0  0  0
    0.4128   -0.7185    0.0000 H   0  0  0  0  0  0  0  0  0  0  0  0
    1.0850    1.1457    0.0000 H   0  0  0  0  0  0  0  0  0  0  0  0
    0.3445    1.1457    0.0000 H   0  0  0  0  0  0  0  0  0  0  0  0
    1.0589   -0.7413    0.0000 H   0  0  0  0  0  0  0  0  0  0  0  0
    1.7995   -0.7413    0.0000 H   0  0  0  0  0  0  0  0  0  0  0  0
    2.5139    1.1457    0.0000 H   0  0  0  0  0  0  0  0  0  0  0  0
    1.7734    1.1457    0.0000 H   0  0  0  0  0  0  0  0  0  0  0  0
    3.9429    1.1457    0.0000 H   0  0  0  0  0  0  0  0  0  0  0  0
    3.2024    1.1457    0.0000 H   0  0  0  0  0  0  0  0  0  0  0  0
    4.2871   -0.8291    0.0000 H   0  0  0  0  0  0  0  0  0  0  0  0
    5.7160   -0.8291    0.0000 H   0  0  0  0  0  0  0  0  0  0  0  0
    7.1450   -0.0041    0.0000 H   0  0  0  0  0  0  0  0  0  0  0  0
    6.4305    1.2334    0.0000 H   0  0  0  0  0  0  0  0  0  0  0  0
  1  2  1  0  0  0  0
  2  3  1  0  0  0  0
  3  4  1  0  0  0  0
  4  5  1  0  0  0  0
  5  6  1  0  0  0  0
  6  7  1  0  0  0  0
  7  8  1  0  0  0  0
  8  9  2  0  0  0  0
  8 10  1  0  0  0  0
 10 11  2  0  0  0  0
  1 12  1  0  0  0  0
  1 13  1  0  0  0  0
  1 14  1  0  0  0  0
  2 15  1  0  0  0  0
  2 16  1  0  0  0  0
  3 17  1  0  0  0  0
  3 18  1  0  0  0  0
  4 19  1  0  0  0  0
  4 20  1  0  0  0  0
  6 21  1  0  0  0  0
  6 22  1  0  0  0  0
  7 23  1  0  0  0  0
 10 24  1  0  0  0  0
 11 25  1  0  0  0  0
 11 26  1  0  0  0  0
M  END
>  <id_input>
3461

>  <InChIKey>
UTSYWKJYFPPRAP-UHFFFAOYSA-N

>  <substance_name>
N-(butoxymethyl)prop-2-enamide

>  <casrn>
1852-16-0

>  <Molecular weight>
157.210205078125

>  <guideline>
OECD Guideline 404 (Acute Dermal Irritation / Corrosion)

>  <species>
rabbit

>  <type_of_coverage>
occlusive

>  <max_duration(hrs)>
4.0

>  <vehicle>
unchanged (no vehicle)

>  <edema/ erythema score>
0.89

>  <max_score>
4.0

>  <reversibility>
0.0

>  <Outcome>
0

>  <StandardizerResult>
Remove Explicit Hydrogens (ID: RemoveExplicitH)
Clear Stereo (ID: ClearStereo)
Wedge Clean (ID: WedgeClean)
Mesomerize (ID: Mesomerize)
Tautomerize (ID: Tautomerize)
Add Explicit Hydrogens (ID: AddExplicitH)
Neutralize (ID: Neutralize)
Clean 2D (ID: Clean2D)


$$$$

  Mrv1812 02121911042D          

 36 37  0  0  0  0            999 V2000
   -2.3543   -0.0757    0.0000 C   0  0  0  0  0  0  0  0  0  0  0  0
   -1.6398   -0.4882    0.0000 C   0  0  0  0  0  0  0  0  0  0  0  0
   -0.9253   -0.0757    0.0000 C   0  0  0  0  0  0  0  0  0  0  0  0
   -0.9253    0.7493    0.0000 O   0  0  0  0  0  0  0  0  0  0  0  0
   -0.2109   -0.4882    0.0000 O   0  0  0  0  0  0  0  0  0  0  0  0
    0.5036   -0.0757    0.0000 C   0  0  0  0  0  0  0  0  0  0  0  0
    1.2181   -0.4882    0.0000 C   0  0  0  0  0  0  0  0  0  0  0  0
    1.9326   -0.0757    0.0000 O   0  0  0  0  0  0  0  0  0  0  0  0
    2.6470   -0.4882    0.0000 C   0  0  0  0  0  0  0  0  0  0  0  0
    2.6470   -1.3132    0.0000 C   0  0  0  0  0  0  0  0  0  0  0  0
    3.3615   -1.7257    0.0000 C   0  0  0  0  0  0  0  0  0  0  0  0
    4.0760   -1.3132    0.0000 C   0  0  0  0  0  0  0  0  0  0  0  0
    4.0760   -0.4882    0.0000 C   0  0  0  0  0  0  0  0  0  0  0  0
    3.3615   -0.0757    0.0000 C   0  0  0  0  0  0  0  0  0  0  0  0
    3.3615    0.7493    0.0000 C   0  0  0  0  0  0  0  0  0  0  0  0
    4.0760    1.1618    0.0000 C   0  0  0  0  0  0  0  0  0  0  0  0
    4.0760    1.9868    0.0000 C   0  0  0  0  0  0  0  0  0  0  0  0
    3.3615    2.3993    0.0000 C   0  0  0  0  0  0  0  0  0  0  0  0
    2.6470    1.9868    0.0000 C   0  0  0  0  0  0  0  0  0  0  0  0
    2.6470    1.1618    0.0000 C   0  0  0  0  0  0  0  0  0  0  0  0
   -2.3543    0.7493    0.0000 H   0  0  0  0  0  0  0  0  0  0  0  0
   -3.0687   -0.4882    0.0000 H   0  0  0  0  0  0  0  0  0  0  0  0
   -1.6398   -1.3132    0.0000 H   0  0  0  0  0  0  0  0  0  0  0  0
    0.8739    0.6615    0.0000 H   0  0  0  0  0  0  0  0  0  0  0  0
    0.1334    0.6615    0.0000 H   0  0  0  0  0  0  0  0  0  0  0  0
    0.8478   -1.2254    0.0000 H   0  0  0  0  0  0  0  0  0  0  0  0
    1.5883   -1.2254    0.0000 H   0  0  0  0  0  0  0  0  0  0  0  0
    1.9326   -1.7257    0.0000 H   0  0  0  0  0  0  0  0  0  0  0  0
    3.3615   -2.5507    0.0000 H   0  0  0  0  0  0  0  0  0  0  0  0
    4.7904   -1.7257    0.0000 H   0  0  0  0  0  0  0  0  0  0  0  0
    4.7904   -0.0757    0.0000 H   0  0  0  0  0  0  0  0  0  0  0  0
    4.7904    0.7493    0.0000 H   0  0  0  0  0  0  0  0  0  0  0  0
    4.7904    2.3993    0.0000 H   0  0  0  0  0  0  0  0  0  0  0  0
    3.3615    3.2243    0.0000 H   0  0  0  0  0  0  0  0  0  0  0  0
    1.9326    2.3993    0.0000 H   0  0  0  0  0  0  0  0  0  0  0  0
    1.9326    0.7493    0.0000 H   0  0  0  0  0  0  0  0  0  0  0  0
  1  2  2  0  0  0  0
  2  3  1  0  0  0  0
  3  4  2  0  0  0  0
  3  5  1  0  0  0  0
  5  6  1  0  0  0  0
  6  7  1  0  0  0  0
  7  8  1  0  0  0  0
  8  9  1  0  0  0  0
 10  9  4  0  0  0  0
 11 10  4  0  0  0  0
 12 11  4  0  0  0  0
 13 12  4  0  0  0  0
 14 13  4  0  0  0  0
 14 15  1  0  0  0  0
 16 15  4  0  0  0  0
 17 16  4  0  0  0  0
 18 17  4  0  0  0  0
 19 18  4  0  0  0  0
 20 19  4  0  0  0  0
  9 14  4  0  0  0  0
 15 20  4  0  0  0  0
  1 21  1  0  0  0  0
  1 22  1  0  0  0  0
  2 23  1  0  0  0  0
  6 24  1  0  0  0  0
  6 25  1  0  0  0  0
  7 26  1  0  0  0  0
  7 27  1  0  0  0  0
 10 28  1  0  0  0  0
 11 29  1  0  0  0  0
 12 30  1  0  0  0  0
 13 31  1  0  0  0  0
 16 32  1  0  0  0  0
 17 33  1  0  0  0  0
 18 34  1  0  0  0  0
 19 35  1  0  0  0  0
 20 36  1  0  0  0  0
M  END
>  <id_input>
2187

>  <InChIKey>
VAZQKPWSBFZARZ-UHFFFAOYSA-N

>  <substance_name>
2-(2-phenylphenoxy)ethyl prop-2-enoate

>  <casrn>
72009-86-0

>  <Molecular weight>
268.3071594238281

>  <guideline>
other: Code of Federal Regulations, Title 16, Section 1500.41

>  <species>
rabbit

>  <type_of_coverage>
semiocclusive

>  <max_duration(hrs)>
24.0

>  <vehicle>
unchanged (no vehicle)

>  <edema/ erythema score>
0.333333333333333

>  <max_score>
1.0

>  <reversibility>
0.0

>  <Outcome>
0

>  <StandardizerResult>
Remove Explicit Hydrogens (ID: RemoveExplicitH)
Dearomatize (ID: Dearomatize)
Clear Stereo (ID: ClearStereo)
Wedge Clean (ID: WedgeClean)
Mesomerize (ID: Mesomerize)
Tautomerize (ID: Tautomerize)
Aromatize (ID: Aromatize)
Add Explicit Hydrogens (ID: AddExplicitH)
Neutralize (ID: Neutralize)
Clean 2D (ID: Clean2D)


$$$$

  Mrv1812 02121911042D          

 17 16  0  0  0  0            999 V2000
   -0.7520    0.0107    0.0000 N   0  0  0  0  0  0  0  0  0  0  0  0
   -0.0376    0.4232    0.0000 N   0  0  0  0  0  0  0  0  0  0  0  0
    0.6769    0.0107    0.0000 C   0  0  0  0  0  0  0  0  0  0  0  0
    0.6769   -0.8143    0.0000 O   0  0  0  0  0  0  0  0  0  0  0  0
    1.3914    0.4232    0.0000 C   0  0  0  0  0  0  0  0  0  0  0  0
    1.3914    1.2482    0.0000 N   0  0  0  0  0  0  0  0  0  0  0  0
    2.1058    0.0107    0.0000 C   0  0  0  0  0  0  0  0  0  0  0  0
    2.8203    0.4232    0.0000 O   0  0  0  0  0  0  0  0  0  0  0  0
   -1.4665    0.4232    0.0000 H   0  0  0  0  0  0  0  0  0  0  0  0
   -0.7520   -0.8143    0.0000 H   0  0  0  0  0  0  0  0  0  0  0  0
   -0.0376    1.2482    0.0000 H   0  0  0  0  0  0  0  0  0  0  0  0
    0.6769    0.8357    0.0000 H   0  0  0  0  0  0  0  0  0  0  0  0
    2.1286    1.6185    0.0000 H   0  0  0  0  0  0  0  0  0  0  0  0
    1.3434    2.0718    0.0000 H   0  0  0  0  0  0  0  0  0  0  0  0
    1.7356   -0.7265    0.0000 H   0  0  0  0  0  0  0  0  0  0  0  0
    2.4761   -0.7265    0.0000 H   0  0  0  0  0  0  0  0  0  0  0  0
    3.5348    0.0107    0.0000 H   0  0  0  0  0  0  0  0  0  0  0  0
  1  2  1  0  0  0  0
  2  3  1  0  0  0  0
  3  4  2  0  0  0  0
  3  5  1  0  0  0  0
  5  6  1  0  0  0  0
  5  7  1  0  0  0  0
  7  8  1  0  0  0  0
  1  9  1  0  0  0  0
  1 10  1  0  0  0  0
  2 11  1  0  0  0  0
  5 12  1  0  0  0  0
  6 13  1  0  0  0  0
  6 14  1  0  0  0  0
  7 15  1  0  0  0  0
  7 16  1  0  0  0  0
  8 17  1  0  0  0  0
M  END
>  <id_input>
1636

>  <InChIKey>
YTHVXUGXVASXJZ-UHFFFAOYSA-N

>  <substance_name>
-

>  <casrn>
55819-71-1

>  <Molecular weight>
119.1224594116211

>  <guideline>
OECD Guideline 404 (Acute Dermal Irritation / Corrosion)

>  <species>
rabbit

>  <type_of_coverage>
semiocclusive

>  <max_duration(hrs)>
4.0

>  <vehicle>
unchanged (no vehicle)

>  <edema/ erythema score>
0.0

>  <max_score>
4.0

>  <reversibility>
0.0

>  <Outcome>
0

>  <StandardizerResult>
Remove Explicit Hydrogens (ID: RemoveExplicitH)
Clear Stereo (ID: ClearStereo)
Wedge Clean (ID: WedgeClean)
Mesomerize (ID: Mesomerize)
Tautomerize (ID: Tautomerize)
Add Explicit Hydrogens (ID: AddExplicitH)
Neutralize (ID: Neutralize)
Clean 2D (ID: Clean2D)


$$$$

  Mrv1812 02121911042D          

 26 27  0  0  0  0            999 V2000
    1.2708    1.2503    0.0000 C   0  0  0  0  0  0  0  0  0  0  0  0
    0.5564    0.8378    0.0000 C   0  0  0  0  0  0  0  0  0  0  0  0
   -0.1581    1.2503    0.0000 C   0  0  0  0  0  0  0  0  0  0  0  0
   -0.8726    0.8378    0.0000 C   0  0  0  0  0  0  0  0  0  0  0  0
   -0.8726    0.0128    0.0000 C   0  0  0  0  0  0  0  0  0  0  0  0
   -0.1581   -0.3997    0.0000 C   0  0  0  0  0  0  0  0  0  0  0  0
    0.5564    0.0128    0.0000 C   0  0  0  0  0  0  0  0  0  0  0  0
   -1.5871   -0.3997    0.0000 C   0  0  0  0  0  0  0  0  0  0  0  0
   -2.3015    0.0128    0.0000 C   0  0  0  0  0  0  0  0  0  0  0  0
   -3.0160   -0.3997    0.0000 C   0  0  0  0  0  0  0  0  0  0  0  0
   -3.0160   -1.2247    0.0000 C   0  0  0  0  0  0  0  0  0  0  0  0
   -2.3015   -1.6372    0.0000 C   0  0  0  0  0  0  0  0  0  0  0  0
   -1.5871   -1.2247    0.0000 C   0  0  0  0  0  0  0  0  0  0  0  0
   -0.8726   -1.6372    0.0000 C   0  0  0  0  0  0  0  0  0  0  0  0
   -0.1581   -2.0497    0.0000 N   0  0  0  0  0  0  0  0  0  0  0  0
    1.6833    0.5358    0.0000 H   0  0  0  0  0  0  0  0  0  0  0  0
    1.9853    1.6628    0.0000 H   0  0  0  0  0  0  0  0  0  0  0  0
    0.8583    1.9648    0.0000 H   0  0  0  0  0  0  0  0  0  0  0  0
   -0.1581    2.0753    0.0000 H   0  0  0  0  0  0  0  0  0  0  0  0
   -1.5871    1.2503    0.0000 H   0  0  0  0  0  0  0  0  0  0  0  0
   -0.1581   -1.2247    0.0000 H   0  0  0  0  0  0  0  0  0  0  0  0
    1.2708   -0.3997    0.0000 H   0  0  0  0  0  0  0  0  0  0  0  0
   -2.3015    0.8378    0.0000 H   0  0  0  0  0  0  0  0  0  0  0  0
   -3.7305    0.0128    0.0000 H   0  0  0  0  0  0  0  0  0  0  0  0
   -3.7305   -1.6372    0.0000 H   0  0  0  0  0  0  0  0  0  0  0  0
   -2.3015   -2.4622    0.0000 H   0  0  0  0  0  0  0  0  0  0  0  0
  1  2  1  0  0  0  0
  3  2  4  0  0  0  0
  4  3  4  0  0  0  0
  5  4  4  0  0  0  0
  6  5  4  0  0  0  0
  7  6  4  0  0  0  0
  5  8  1  0  0  0  0
  9  8  4  0  0  0  0
 10  9  4  0  0  0  0
 11 10  4  0  0  0  0
 12 11  4  0  0  0  0
 13 12  4  0  0  0  0
 13 14  1  0  0  0  0
 14 15  3  0  0  0  0
  2  7  4  0  0  0  0
  8 13  4  0  0  0  0
  1 16  1  0  0  0  0
  1 17  1  0  0  0  0
  1 18  1  0  0  0  0
  3 19  1  0  0  0  0
  4 20  1  0  0  0  0
  6 21  1  0  0  0  0
  7 22  1  0  0  0  0
  9 23  1  0  0  0  0
 10 24  1  0  0  0  0
 11 25  1  0  0  0  0
 12 26  1  0  0  0  0
M  END
>  <id_input>
1563

>  <InChIKey>
ZGQVZLSNEBEHFN-UHFFFAOYSA-N

>  <substance_name>
-

>  <casrn>
114772-53-1

>  <Molecular weight>
193.24383544921875

>  <guideline>
other: Methode de Draize, JO du 21 avril 1971, modifie le 1 fevrier 1982

>  <species>
other: Lapin New Zealand

>  <type_of_coverage>
occlusive

>  <max_duration(hrs)>
24.0

>  <vehicle>
other: Gaze humididiee avec 0.5 ml deau

>  <edema/ erythema score>
0.11

>  <reversibility>
0.0

>  <Outcome>
0

>  <StandardizerResult>
Remove Explicit Hydrogens (ID: RemoveExplicitH)
Dearomatize (ID: Dearomatize)
Clear Stereo (ID: ClearStereo)
Wedge Clean (ID: WedgeClean)
Mesomerize (ID: Mesomerize)
Tautomerize (ID: Tautomerize)
Aromatize (ID: Aromatize)
Add Explicit Hydrogens (ID: AddExplicitH)
Neutralize (ID: Neutralize)
Clean 2D (ID: Clean2D)


$$$$

  Mrv1812 02121911042D          

 63 67  0  0  0  0            999 V2000
   -4.5950    1.4719    0.0000 C   0  0  0  0  0  0  0  0  0  0  0  0
   -4.2593    0.7183    0.0000 C   0  0  0  0  0  0  0  0  0  0  0  0
   -3.4388    0.6323    0.0000 N   0  0  0  0  0  0  0  0  0  0  0  0
   -2.9540    1.2999    0.0000 C   0  0  0  0  0  0  0  0  0  0  0  0
   -2.1335    1.2139    0.0000 C   0  0  0  0  0  0  0  0  0  0  0  0
   -3.1030   -0.1212    0.0000 C   0  0  0  0  0  0  0  0  0  0  0  0
   -3.5877   -0.7888    0.0000 C   0  0  0  0  0  0  0  0  0  0  0  0
   -3.2519   -1.5424    0.0000 C   0  0  0  0  0  0  0  0  0  0  0  0
   -2.4314   -1.6284    0.0000 C   0  0  0  0  0  0  0  0  0  0  0  0
   -1.9467   -0.9608    0.0000 C   0  0  0  0  0  0  0  0  0  0  0  0
   -1.1262   -1.0468    0.0000 O   0  0  0  0  0  0  0  0  0  0  0  0
   -0.7904   -1.8004    0.0000 C   0  0  0  0  0  0  0  0  0  0  0  0
    0.0301   -1.8864    0.0000 C   0  0  0  0  0  0  0  0  0  0  0  0
    0.3659   -2.6400    0.0000 C   0  0  0  0  0  0  0  0  0  0  0  0
   -0.1189   -3.3076    0.0000 C   0  0  0  0  0  0  0  0  0  0  0  0
   -0.9394   -3.2216    0.0000 C   0  0  0  0  0  0  0  0  0  0  0  0
   -1.2751   -2.4680    0.0000 C   0  0  0  0  0  0  0  0  0  0  0  0
   -2.0957   -2.3820    0.0000 C   0  0  0  0  0  0  0  0  0  0  0  0
   -1.8405   -3.1665    0.0000 O   0  0  0  0  0  0  0  0  0  0  0  0
   -2.5078   -3.6516    0.0000 C   0  0  0  0  0  0  0  0  0  0  0  0
   -2.5075   -4.4766    0.0000 O   0  0  0  0  0  0  0  0  0  0  0  0
   -3.1754   -3.1669    0.0000 C   0  0  0  0  0  0  0  0  0  0  0  0
   -3.9823   -3.3387    0.0000 C   0  0  0  0  0  0  0  0  0  0  0  0
   -4.5345   -2.7257    0.0000 C   0  0  0  0  0  0  0  0  0  0  0  0
   -4.2798   -1.9410    0.0000 C   0  0  0  0  0  0  0  0  0  0  0  0
   -3.4729   -1.7693    0.0000 C   0  0  0  0  0  0  0  0  0  0  0  0
   -2.9207   -2.3822    0.0000 C   0  0  0  0  0  0  0  0  0  0  0  0
    1.1864   -2.7260    0.0000 N   0  0  0  0  0  0  0  0  0  0  0  0
    1.5221   -3.4796    0.0000 C   0  0  0  0  0  0  0  0  0  0  0  0
    2.3427   -3.5656    0.0000 C   0  0  0  0  0  0  0  0  0  0  0  0
    1.6711   -2.0584    0.0000 C   0  0  0  0  0  0  0  0  0  0  0  0
    2.4916   -2.1444    0.0000 C   0  0  0  0  0  0  0  0  0  0  0  0
   -2.2825   -0.2072    0.0000 C   0  0  0  0  0  0  0  0  0  0  0  0
   -3.8415    1.8077    0.0000 H   0  0  0  0  0  0  0  0  0  0  0  0
   -4.9308    2.2255    0.0000 H   0  0  0  0  0  0  0  0  0  0  0  0
   -5.3486    1.1361    0.0000 H   0  0  0  0  0  0  0  0  0  0  0  0
   -4.9920    0.3393    0.0000 H   0  0  0  0  0  0  0  0  0  0  0  0
   -4.3928   -0.0958    0.0000 H   0  0  0  0  0  0  0  0  0  0  0  0
   -2.9159    2.1240    0.0000 H   0  0  0  0  0  0  0  0  0  0  0  0
   -3.5923    1.8226    0.0000 H   0  0  0  0  0  0  0  0  0  0  0  0
   -2.2195    0.3934    0.0000 H   0  0  0  0  0  0  0  0  0  0  0  0
   -1.3130    1.1279    0.0000 H   0  0  0  0  0  0  0  0  0  0  0  0
   -2.0475    2.0344    0.0000 H   0  0  0  0  0  0  0  0  0  0  0  0
   -4.4082   -0.7028    0.0000 H   0  0  0  0  0  0  0  0  0  0  0  0
   -4.0641   -1.3976    0.0000 H   0  0  0  0  0  0  0  0  0  0  0  0
    0.5148   -1.2188    0.0000 H   0  0  0  0  0  0  0  0  0  0  0  0
    0.2169   -4.0611    0.0000 H   0  0  0  0  0  0  0  0  0  0  0  0
   -1.0075   -4.0437    0.0000 H   0  0  0  0  0  0  0  0  0  0  0  0
   -4.2370   -4.1234    0.0000 H   0  0  0  0  0  0  0  0  0  0  0  0
   -5.3414   -2.8975    0.0000 H   0  0  0  0  0  0  0  0  0  0  0  0
   -5.0559   -1.6614    0.0000 H   0  0  0  0  0  0  0  0  0  0  0  0
   -3.7276   -2.5540    0.0000 H   0  0  0  0  0  0  0  0  0  0  0  0
    0.7894   -3.8586    0.0000 H   0  0  0  0  0  0  0  0  0  0  0  0
    1.3886   -4.2937    0.0000 H   0  0  0  0  0  0  0  0  0  0  0  0
    2.2567   -4.3861    0.0000 H   0  0  0  0  0  0  0  0  0  0  0  0
    3.1632   -3.6516    0.0000 H   0  0  0  0  0  0  0  0  0  0  0  0
    2.4287   -2.7450    0.0000 H   0  0  0  0  0  0  0  0  0  0  0  0
    1.7092   -1.2343    0.0000 H   0  0  0  0  0  0  0  0  0  0  0  0
    1.0328   -1.5357    0.0000 H   0  0  0  0  0  0  0  0  0  0  0  0
    3.2167   -2.5378    0.0000 H   0  0  0  0  0  0  0  0  0  0  0  0
    3.1326   -1.6250    0.0000 H   0  0  0  0  0  0  0  0  0  0  0  0
    2.2571   -1.3534    0.0000 H   0  0  0  0  0  0  0  0  0  0  0  0
   -1.4677   -0.0779    0.0000 H   0  0  0  0  0  0  0  0  0  0  0  0
  1  2  1  0  0  0  0
  2  3  1  0  0  0  0
  3  4  1  0  0  0  0
  4  5  1  0  0  0  0
  3  6  1  0  0  0  0
  7  6  4  0  0  0  0
  8  7  4  0  0  0  0
  9  8  4  0  0  0  0
  9 10  4  0  0  0  0
 10 11  1  0  0  0  0
 11 12  1  0  0  0  0
 13 12  4  0  0  0  0
 14 13  4  0  0  0  0
 15 14  4  0  0  0  0
 16 15  4  0  0  0  0
 17 16  4  0  0  0  0
 17 18  1  0  0  0  0
 19 18  1  0  0  0  0
 20 19  1  0  0  0  0
 20 21  2  0  0  0  0
 22 20  1  0  0  0  0
 22 23  4  0  0  0  0
 23 24  4  0  0  0  0
 24 25  4  0  0  0  0
 25 26  4  0  0  0  0
 26 27  4  0  0  0  0
 14 28  1  0  0  0  0
 28 29  1  0  0  0  0
 29 30  1  0  0  0  0
 28 31  1  0  0  0  0
 31 32  1  0  0  0  0
 33 10  4  0  0  0  0
  6 33  4  0  0  0  0
 18  9  1  0  0  0  0
 12 17  4  0  0  0  0
 18 27  1  0  0  0  0
 27 22  4  0  0  0  0
  1 34  1  0  0  0  0
  1 35  1  0  0  0  0
  1 36  1  0  0  0  0
  2 37  1  0  0  0  0
  2 38  1  0  0  0  0
  4 39  1  0  0  0  0
  4 40  1  0  0  0  0
  5 41  1  0  0  0  0
  5 42  1  0  0  0  0
  5 43  1  0  0  0  0
  7 44  1  0  0  0  0
  8 45  1  0  0  0  0
 13 46  1  0  0  0  0
 15 47  1  0  0  0  0
 16 48  1  0  0  0  0
 23 49  1  0  0  0  0
 24 50  1  0  0  0  0
 25 51  1  0  0  0  0
 26 52  1  0  0  0  0
 29 53  1  0  0  0  0
 29 54  1  0  0  0  0
 30 55  1  0  0  0  0
 30 56  1  0  0  0  0
 30 57  1  0  0  0  0
 31 58  1  0  0  0  0
 31 59  1  0  0  0  0
 32 60  1  0  0  0  0
 32 61  1  0  0  0  0
 32 62  1  0  0  0  0
 33 63  1  0  0  0  0
M  END
>  <id_input>
2630, 2631

>  <InChIKey>
DZNJMLVCIZGWSC-UHFFFAOYSA-N

>  <substance_name>
3',6'-bis(diethylamino)-3H-spiro[2-benzofuran-1,9'-xanthene]-3-one

>  <casrn>
509-34-2

>  <Molecular weight>
442.5494079589844

>  <guideline>
OECD Guideline 404 (Acute Dermal Irritation / Corrosion)

>  <species>
rabbit

>  <type_of_coverage>
other: porous gauze dressing and non-irritating tape

>  <max_duration(hrs)>
4.0

>  <vehicle>
other: distilled water

>  <edema/ erythema score>
0.556666666666666

>  <max_score>
3.0

>  <reversibility>
0.0

>  <Outcome>
0

>  <StandardizerResult>
Remove Explicit Hydrogens (ID: RemoveExplicitH)
Dearomatize (ID: Dearomatize)
Clear Stereo (ID: ClearStereo)
Wedge Clean (ID: WedgeClean)
Mesomerize (ID: Mesomerize)
Tautomerize (ID: Tautomerize)
Aromatize (ID: Aromatize)
Add Explicit Hydrogens (ID: AddExplicitH)
Neutralize (ID: Neutralize)
Clean 2D (ID: Clean2D)


$$$$

  Mrv1812 02121911042D          

 20 20  0  0  0  0            999 V2000
    0.4390    1.3821    0.0000 C   0  0  0  0  0  0  0  0  0  0  0  0
   -0.2755    1.7946    0.0000 C   0  0  0  0  0  0  0  0  0  0  0  0
   -0.9899    1.3821    0.0000 C   0  0  0  0  0  0  0  0  0  0  0  0
   -0.9899    0.5571    0.0000 C   0  0  0  0  0  0  0  0  0  0  0  0
   -0.2755    0.1446    0.0000 C   0  0  0  0  0  0  0  0  0  0  0  0
    0.4390    0.5571    0.0000 C   0  0  0  0  0  0  0  0  0  0  0  0
   -0.2755   -0.6804    0.0000 C   0  0  0  0  0  0  0  0  0  0  0  0
   -0.2755   -1.5054    0.0000 F   0  0  0  0  0  0  0  0  0  0  0  0
    0.5495   -0.6804    0.0000 F   0  0  0  0  0  0  0  0  0  0  0  0
   -1.1005   -0.6804    0.0000 F   0  0  0  0  0  0  0  0  0  0  0  0
   -1.7044    0.1446    0.0000 S   0  0  0  0  0  0  0  0  0  0  0  0
   -2.4189   -0.2679    0.0000 O   0  0  0  0  0  0  0  0  0  0  0  0
   -2.1169    0.8591    0.0000 O   0  0  0  0  0  0  0  0  0  0  0  0
   -1.5329   -0.6624    0.0000 N   0  0  0  0  0  0  0  0  0  0  0  0
    1.1535    1.7946    0.0000 H   0  0  0  0  0  0  0  0  0  0  0  0
   -0.2755    2.6196    0.0000 H   0  0  0  0  0  0  0  0  0  0  0  0
   -1.7044    1.7946    0.0000 H   0  0  0  0  0  0  0  0  0  0  0  0
    1.1535    0.1446    0.0000 H   0  0  0  0  0  0  0  0  0  0  0  0
   -2.0131   -1.3332    0.0000 H   0  0  0  0  0  0  0  0  0  0  0  0
   -1.4009   -1.4767    0.0000 H   0  0  0  0  0  0  0  0  0  0  0  0
  2  1  4  0  0  0  0
  3  2  4  0  0  0  0
  4  3  4  0  0  0  0
  5  4  4  0  0  0  0
  6  5  4  0  0  0  0
  5  7  1  0  0  0  0
  7  8  1  0  0  0  0
  7  9  1  0  0  0  0
  7 10  1  0  0  0  0
  4 11  1  0  0  0  0
 11 12  2  0  0  0  0
 11 13  2  0  0  0  0
 11 14  1  0  0  0  0
  1  6  4  0  0  0  0
  1 15  1  0  0  0  0
  2 16  1  0  0  0  0
  3 17  1  0  0  0  0
  6 18  1  0  0  0  0
 14 19  1  0  0  0  0
 14 20  1  0  0  0  0
M  END
>  <id_input>
5346

>  <InChIKey>
AFFPZJFLSDVZBV-UHFFFAOYSA-N

>  <substance_name>
unnamed [1869-24-5]

>  <casrn>
1869-24-5

>  <Molecular weight>
225.18824768066406

>  <guideline>
OECD Guideline 404 (Acute Dermal Irritation / Corrosion)

>  <species>
rabbit

>  <type_of_coverage>
semiocclusive

>  <max_duration(hrs)>
4.0

>  <vehicle>
water

>  <edema/ erythema score>
0.1

>  <max_score>
0.3

>  <reversibility>
0.0

>  <Outcome>
0

>  <StandardizerResult>
Remove Explicit Hydrogens (ID: RemoveExplicitH)
Dearomatize (ID: Dearomatize)
Clear Stereo (ID: ClearStereo)
Wedge Clean (ID: WedgeClean)
Mesomerize (ID: Mesomerize)
Tautomerize (ID: Tautomerize)
Aromatize (ID: Aromatize)
Add Explicit Hydrogens (ID: AddExplicitH)
Neutralize (ID: Neutralize)
Clean 2D (ID: Clean2D)


$$$$

  Mrv1812 02121911042D          

 33 33  0  0  0  0            999 V2000
    2.2406   -2.4064    0.0000 C   0  0  0  0  0  0  0  0  0  0  0  0
    2.2406   -1.5814    0.0000 C   0  0  0  0  0  0  0  0  0  0  0  0
    1.5262   -1.1689    0.0000 C   0  0  0  0  0  0  0  0  0  0  0  0
    1.5262   -0.3439    0.0000 O   0  0  0  0  0  0  0  0  0  0  0  0
    0.8117    0.0686    0.0000 C   0  0  0  0  0  0  0  0  0  0  0  0
    0.8117    0.8936    0.0000 N   0  0  0  0  0  0  0  0  0  0  0  0
    0.0972    1.3061    0.0000 C   0  0  0  0  0  0  0  0  0  0  0  0
    0.0972    2.1311    0.0000 O   0  0  0  0  0  0  0  0  0  0  0  0
   -0.6172    2.5436    0.0000 C   0  0  0  0  0  0  0  0  0  0  0  0
   -0.6172    3.3686    0.0000 C   0  0  0  0  0  0  0  0  0  0  0  0
   -1.3317    3.7811    0.0000 C   0  0  0  0  0  0  0  0  0  0  0  0
   -0.6172    0.8936    0.0000 N   0  0  0  0  0  0  0  0  0  0  0  0
   -0.6172    0.0686    0.0000 C   0  0  0  0  0  0  0  0  0  0  0  0
   -1.3317   -0.3439    0.0000 O   0  0  0  0  0  0  0  0  0  0  0  0
   -1.3317   -1.1689    0.0000 C   0  0  0  0  0  0  0  0  0  0  0  0
   -0.6172   -1.5814    0.0000 C   0  0  0  0  0  0  0  0  0  0  0  0
   -0.6172   -2.4064    0.0000 C   0  0  0  0  0  0  0  0  0  0  0  0
    0.0972   -0.3439    0.0000 N   0  0  0  0  0  0  0  0  0  0  0  0
    1.5262   -2.8189    0.0000 H   0  0  0  0  0  0  0  0  0  0  0  0
    2.9551   -2.8189    0.0000 H   0  0  0  0  0  0  0  0  0  0  0  0
    2.9551   -1.1689    0.0000 H   0  0  0  0  0  0  0  0  0  0  0  0
    0.7026   -1.2169    0.0000 H   0  0  0  0  0  0  0  0  0  0  0  0
    1.0728   -1.8582    0.0000 H   0  0  0  0  0  0  0  0  0  0  0  0
   -1.4408    2.4956    0.0000 H   0  0  0  0  0  0  0  0  0  0  0  0
   -1.0706    1.8543    0.0000 H   0  0  0  0  0  0  0  0  0  0  0  0
    0.0972    3.7811    0.0000 H   0  0  0  0  0  0  0  0  0  0  0  0
   -1.3317    4.6061    0.0000 H   0  0  0  0  0  0  0  0  0  0  0  0
   -2.0462    3.3686    0.0000 H   0  0  0  0  0  0  0  0  0  0  0  0
   -2.1553   -1.2169    0.0000 H   0  0  0  0  0  0  0  0  0  0  0  0
   -1.7851   -1.8582    0.0000 H   0  0  0  0  0  0  0  0  0  0  0  0
    0.0972   -1.1689    0.0000 H   0  0  0  0  0  0  0  0  0  0  0  0
   -1.3317   -2.8189    0.0000 H   0  0  0  0  0  0  0  0  0  0  0  0
    0.0972   -2.8189    0.0000 H   0  0  0  0  0  0  0  0  0  0  0  0
  1  2  2  0  0  0  0
  2  3  1  0  0  0  0
  3  4  1  0  0  0  0
  4  5  1  0  0  0  0
  6  5  4  0  0  0  0
  7  6  4  0  0  0  0
  7  8  1  0  0  0  0
  8  9  1  0  0  0  0
  9 10  1  0  0  0  0
 10 11  2  0  0  0  0
 12  7  4  0  0  0  0
 13 12  4  0  0  0  0
 13 14  1  0  0  0  0
 14 15  1  0  0  0  0
 15 16  1  0  0  0  0
 16 17  2  0  0  0  0
 18 13  4  0  0  0  0
  5 18  4  0  0  0  0
  1 19  1  0  0  0  0
  1 20  1  0  0  0  0
  2 21  1  0  0  0  0
  3 22  1  0  0  0  0
  3 23  1  0  0  0  0
  9 24  1  0  0  0  0
  9 25  1  0  0  0  0
 10 26  1  0  0  0  0
 11 27  1  0  0  0  0
 11 28  1  0  0  0  0
 15 29  1  0  0  0  0
 15 30  1  0  0  0  0
 16 31  1  0  0  0  0
 17 32  1  0  0  0  0
 17 33  1  0  0  0  0
M  END
>  <id_input>
5180

>  <InChIKey>
BJELTSYBAHKXRW-UHFFFAOYSA-N

>  <substance_name>
tris(prop-2-en-1-yloxy)-1,3,5-triazine

>  <casrn>
101-37-1

>  <Molecular weight>
249.26580810546875

>  <guideline>
OECD Guideline 404 (Acute Dermal Irritation / Corrosion)

>  <species>
rabbit

>  <type_of_coverage>
occlusive

>  <max_duration(hrs)>
4.0

>  <vehicle>
unchanged (no vehicle)

>  <edema/ erythema score>
0.0

>  <max_score>
4.0

>  <reversibility>
0.0

>  <Outcome>
0

>  <StandardizerResult>
Remove Explicit Hydrogens (ID: RemoveExplicitH)
Dearomatize (ID: Dearomatize)
Clear Stereo (ID: ClearStereo)
Wedge Clean (ID: WedgeClean)
Mesomerize (ID: Mesomerize)
Tautomerize (ID: Tautomerize)
Aromatize (ID: Aromatize)
Add Explicit Hydrogens (ID: AddExplicitH)
Neutralize (ID: Neutralize)
Clean 2D (ID: Clean2D)


$$$$

  Mrv1812 02121911042D          

 56 57  0  0  0  0            999 V2000
    2.7777   -0.9396    0.0000 C   0  0  0  0  0  0  0  0  0  0  0  0
    2.0632   -0.5271    0.0000 O   0  0  0  0  0  0  0  0  0  0  0  0
    1.3488   -0.9396    0.0000 C   0  0  0  0  0  0  0  0  0  0  0  0
    0.6343   -0.5271    0.0000 C   0  0  0  0  0  0  0  0  0  0  0  0
   -0.0802   -0.9396    0.0000 C   0  0  0  0  0  0  0  0  0  0  0  0
   -0.0802   -1.7646    0.0000 C   0  0  0  0  0  0  0  0  0  0  0  0
   -0.7946   -2.1771    0.0000 O   0  0  0  0  0  0  0  0  0  0  0  0
    0.6343   -2.1771    0.0000 C   0  0  0  0  0  0  0  0  0  0  0  0
    1.3488   -1.7646    0.0000 C   0  0  0  0  0  0  0  0  0  0  0  0
    0.6343   -3.0021    0.0000 C   0  0  0  0  0  0  0  0  0  0  0  0
    0.6343   -3.8271    0.0000 C   0  0  0  0  0  0  0  0  0  0  0  0
    1.4593   -3.0021    0.0000 C   0  0  0  0  0  0  0  0  0  0  0  0
   -0.1907   -3.0021    0.0000 C   0  0  0  0  0  0  0  0  0  0  0  0
   -0.7946   -0.5271    0.0000 C   0  0  0  0  0  0  0  0  0  0  0  0
   -0.7946    0.2979    0.0000 C   0  0  0  0  0  0  0  0  0  0  0  0
   -1.5091    0.7104    0.0000 C   0  0  0  0  0  0  0  0  0  0  0  0
   -1.5091    1.5354    0.0000 O   0  0  0  0  0  0  0  0  0  0  0  0
   -2.2236    1.9479    0.0000 C   0  0  0  0  0  0  0  0  0  0  0  0
   -2.2236    0.2979    0.0000 C   0  0  0  0  0  0  0  0  0  0  0  0
   -2.2236   -0.5271    0.0000 C   0  0  0  0  0  0  0  0  0  0  0  0
   -1.5091   -0.9396    0.0000 C   0  0  0  0  0  0  0  0  0  0  0  0
   -1.5091   -1.7646    0.0000 O   0  0  0  0  0  0  0  0  0  0  0  0
   -2.9381   -0.9396    0.0000 C   0  0  0  0  0  0  0  0  0  0  0  0
   -3.6525   -1.3521    0.0000 C   0  0  0  0  0  0  0  0  0  0  0  0
   -2.5256   -1.6541    0.0000 C   0  0  0  0  0  0  0  0  0  0  0  0
   -3.3506   -0.2251    0.0000 C   0  0  0  0  0  0  0  0  0  0  0  0
    2.3652   -1.6541    0.0000 H   0  0  0  0  0  0  0  0  0  0  0  0
    3.4922   -1.3521    0.0000 H   0  0  0  0  0  0  0  0  0  0  0  0
    3.1902   -0.2251    0.0000 H   0  0  0  0  0  0  0  0  0  0  0  0
    0.6343    0.2979    0.0000 H   0  0  0  0  0  0  0  0  0  0  0  0
   -0.7946   -3.0021    0.0000 H   0  0  0  0  0  0  0  0  0  0  0  0
    2.0632   -2.1771    0.0000 H   0  0  0  0  0  0  0  0  0  0  0  0
   -0.1907   -3.8271    0.0000 H   0  0  0  0  0  0  0  0  0  0  0  0
    0.6343   -4.6521    0.0000 H   0  0  0  0  0  0  0  0  0  0  0  0
    1.4593   -3.8271    0.0000 H   0  0  0  0  0  0  0  0  0  0  0  0
    2.2215   -3.3178    0.0000 H   0  0  0  0  0  0  0  0  0  0  0  0
    2.0427   -2.4187    0.0000 H   0  0  0  0  0  0  0  0  0  0  0  0
    1.1436   -2.2399    0.0000 H   0  0  0  0  0  0  0  0  0  0  0  0
    0.0915   -2.2269    0.0000 H   0  0  0  0  0  0  0  0  0  0  0  0
   -0.4729   -2.2269    0.0000 H   0  0  0  0  0  0  0  0  0  0  0  0
   -0.7741   -3.5855    0.0000 H   0  0  0  0  0  0  0  0  0  0  0  0
   -0.0802    0.7104    0.0000 H   0  0  0  0  0  0  0  0  0  0  0  0
   -1.8111    2.6624    0.0000 H   0  0  0  0  0  0  0  0  0  0  0  0
   -2.9381    2.3604    0.0000 H   0  0  0  0  0  0  0  0  0  0  0  0
   -2.6361    1.2334    0.0000 H   0  0  0  0  0  0  0  0  0  0  0  0
   -2.9381    0.7104    0.0000 H   0  0  0  0  0  0  0  0  0  0  0  0
   -2.2236   -2.1771    0.0000 H   0  0  0  0  0  0  0  0  0  0  0  0
   -4.0650   -0.6376    0.0000 H   0  0  0  0  0  0  0  0  0  0  0  0
   -4.3670   -1.7646    0.0000 H   0  0  0  0  0  0  0  0  0  0  0  0
   -3.2400   -2.0666    0.0000 H   0  0  0  0  0  0  0  0  0  0  0  0
   -1.7131   -1.5108    0.0000 H   0  0  0  0  0  0  0  0  0  0  0  0
   -1.9953   -1.0221    0.0000 H   0  0  0  0  0  0  0  0  0  0  0  0
   -2.7391   -2.4510    0.0000 H   0  0  0  0  0  0  0  0  0  0  0  0
   -2.5326   -0.1174    0.0000 H   0  0  0  0  0  0  0  0  0  0  0  0
   -3.1370    0.5718    0.0000 H   0  0  0  0  0  0  0  0  0  0  0  0
   -4.0051    0.2771    0.0000 H   0  0  0  0  0  0  0  0  0  0  0  0
  1  2  1  0  0  0  0
  2  3  1  0  0  0  0
  4  3  4  0  0  0  0
  5  4  4  0  0  0  0
  6  5  4  0  0  0  0
  6  7  1  0  0  0  0
  8  6  4  0  0  0  0
  9  8  4  0  0  0  0
  8 10  1  0  0  0  0
 10 11  1  0  0  0  0
 10 12  1  0  0  0  0
 10 13  1  0  0  0  0
  5 14  1  0  0  0  0
 15 14  4  0  0  0  0
 16 15  4  0  0  0  0
 16 17  1  0  0  0  0
 17 18  1  0  0  0  0
 19 16  4  0  0  0  0
 20 19  4  0  0  0  0
 21 20  4  0  0  0  0
 21 22  1  0  0  0  0
 20 23  1  0  0  0  0
 23 24  1  0  0  0  0
 23 25  1  0  0  0  0
 23 26  1  0  0  0  0
  3  9  4  0  0  0  0
 14 21  4  0  0  0  0
  1 27  1  0  0  0  0
  1 28  1  0  0  0  0
  1 29  1  0  0  0  0
  4 30  1  0  0  0  0
  7 31  1  0  0  0  0
  9 32  1  0  0  0  0
 11 33  1  0  0  0  0
 11 34  1  0  0  0  0
 11 35  1  0  0  0  0
 12 36  1  0  0  0  0
 12 37  1  0  0  0  0
 12 38  1  0  0  0  0
 13 39  1  0  0  0  0
 13 40  1  0  0  0  0
 13 41  1  0  0  0  0
 15 42  1  0  0  0  0
 18 43  1  0  0  0  0
 18 44  1  0  0  0  0
 18 45  1  0  0  0  0
 19 46  1  0  0  0  0
 22 47  1  0  0  0  0
 24 48  1  0  0  0  0
 24 49  1  0  0  0  0
 24 50  1  0  0  0  0
 25 51  1  0  0  0  0
 25 52  1  0  0  0  0
 25 53  1  0  0  0  0
 26 54  1  0  0  0  0
 26 55  1  0  0  0  0
 26 56  1  0  0  0  0
M  END
>  <id_input>
623

>  <InChIKey>
CBYWHFTZNVZQHV-UHFFFAOYSA-N

>  <substance_name>
-

>  <casrn>
14078-41-2

>  <Molecular weight>
358.47119140625

>  <guideline>
OECD Guideline 404 (Acute Dermal Irritation / Corrosion)

>  <species>
rabbit

>  <type_of_coverage>
semiocclusive

>  <max_duration(hrs)>
4.0

>  <vehicle>
water

>  <edema/ erythema score>
0.3

>  <max_score>
1.0

>  <reversibility>
0.0

>  <Outcome>
0

>  <StandardizerResult>
Remove Explicit Hydrogens (ID: RemoveExplicitH)
Dearomatize (ID: Dearomatize)
Clear Stereo (ID: ClearStereo)
Wedge Clean (ID: WedgeClean)
Mesomerize (ID: Mesomerize)
Tautomerize (ID: Tautomerize)
Aromatize (ID: Aromatize)
Add Explicit Hydrogens (ID: AddExplicitH)
Neutralize (ID: Neutralize)
Clean 2D (ID: Clean2D)


$$$$

  Mrv1812 02121911042D          

 16 16  0  0  0  0            999 V2000
    2.1522    0.2905    0.0000 O   0  0  0  0  0  0  0  0  0  0  0  0
    1.4377    0.7030    0.0000 C   0  0  0  0  0  0  0  0  0  0  0  0
    1.4377    1.5280    0.0000 O   0  0  0  0  0  0  0  0  0  0  0  0
    0.7232    0.2905    0.0000 C   0  0  0  0  0  0  0  0  0  0  0  0
    0.0088    0.7030    0.0000 C   0  0  0  0  0  0  0  0  0  0  0  0
   -0.7057    0.2905    0.0000 C   0  0  0  0  0  0  0  0  0  0  0  0
   -0.7057   -0.5345    0.0000 C   0  0  0  0  0  0  0  0  0  0  0  0
   -1.4202   -0.9470    0.0000 O   0  0  0  0  0  0  0  0  0  0  0  0
    0.0088   -0.9470    0.0000 C   0  0  0  0  0  0  0  0  0  0  0  0
    0.7232   -0.5345    0.0000 C   0  0  0  0  0  0  0  0  0  0  0  0
    2.1522   -0.5345    0.0000 H   0  0  0  0  0  0  0  0  0  0  0  0
    0.0088    1.5280    0.0000 H   0  0  0  0  0  0  0  0  0  0  0  0
   -1.4202    0.7030    0.0000 H   0  0  0  0  0  0  0  0  0  0  0  0
   -2.1346   -0.5345    0.0000 H   0  0  0  0  0  0  0  0  0  0  0  0
    0.0088   -1.7720    0.0000 H   0  0  0  0  0  0  0  0  0  0  0  0
    1.4377   -0.9470    0.0000 H   0  0  0  0  0  0  0  0  0  0  0  0
  1  2  1  0  0  0  0
  2  3  2  0  0  0  0
  2  4  1  0  0  0  0
  5  4  4  0  0  0  0
  6  5  4  0  0  0  0
  7  6  4  0  0  0  0
  7  8  1  0  0  0  0
  9  7  4  0  0  0  0
 10  9  4  0  0  0  0
  4 10  4  0  0  0  0
  1 11  1  0  0  0  0
  5 12  1  0  0  0  0
  6 13  1  0  0  0  0
  8 14  1  0  0  0  0
  9 15  1  0  0  0  0
 10 16  1  0  0  0  0
M  END
>  <id_input>
2904

>  <InChIKey>
FJKROLUGYXJWQN-UHFFFAOYSA-N

>  <substance_name>
4-hydroxybenzoic acid

>  <casrn>
99-96-7

>  <Molecular weight>
138.12074279785156

>  <guideline>
OECD Guideline 404 (Acute Dermal Irritation / Corrosion)

>  <species>
rabbit

>  <type_of_coverage>
semiocclusive

>  <max_duration(hrs)>
4.0

>  <vehicle>
other: moistened patch with water

>  <edema/ erythema score>
0.25

>  <max_score>
1.0

>  <reversibility>
0.0

>  <Outcome>
0

>  <StandardizerResult>
Remove Explicit Hydrogens (ID: RemoveExplicitH)
Dearomatize (ID: Dearomatize)
Clear Stereo (ID: ClearStereo)
Wedge Clean (ID: WedgeClean)
Mesomerize (ID: Mesomerize)
Tautomerize (ID: Tautomerize)
Aromatize (ID: Aromatize)
Add Explicit Hydrogens (ID: AddExplicitH)
Neutralize (ID: Neutralize)
Clean 2D (ID: Clean2D)


$$$$

  Mrv1812 02121911042D          

 50 52  0  0  0  0            999 V2000
    2.1759   -1.4424    0.0000 O   0  0  0  0  0  0  0  0  0  0  0  0
    1.5309   -0.9280    0.0000 C   0  0  0  0  0  0  0  0  0  0  0  0
    1.7145   -0.1237    0.0000 C   0  0  0  0  0  0  0  0  0  0  0  0
    1.2001    0.5213    0.0000 C   0  0  0  0  0  0  0  0  0  0  0  0
    0.3751    0.5213    0.0000 C   0  0  0  0  0  0  0  0  0  0  0  0
   -0.1393   -0.1237    0.0000 C   0  0  0  0  0  0  0  0  0  0  0  0
    0.0443   -0.9280    0.0000 C   0  0  0  0  0  0  0  0  0  0  0  0
    0.7876   -1.2860    0.0000 N   0  0  0  0  0  0  0  0  0  0  0  0
    0.7876   -2.1110    0.0000 C   0  0  0  0  0  0  0  0  0  0  0  0
    1.5021   -2.5235    0.0000 O   0  0  0  0  0  0  0  0  0  0  0  0
    0.0731   -2.5235    0.0000 C   0  0  0  0  0  0  0  0  0  0  0  0
   -0.6413   -2.1110    0.0000 C   0  0  0  0  0  0  0  0  0  0  0  0
   -1.3558   -2.5235    0.0000 C   0  0  0  0  0  0  0  0  0  0  0  0
   -1.3558   -3.3485    0.0000 C   0  0  0  0  0  0  0  0  0  0  0  0
   -0.6413   -3.7610    0.0000 C   0  0  0  0  0  0  0  0  0  0  0  0
    0.0731   -3.3485    0.0000 C   0  0  0  0  0  0  0  0  0  0  0  0
   -0.6413   -4.5860    0.0000 C   0  0  0  0  0  0  0  0  0  0  0  0
   -1.3558   -4.9985    0.0000 O   0  0  0  0  0  0  0  0  0  0  0  0
    0.0731   -4.9985    0.0000 N   0  0  0  0  0  0  0  0  0  0  0  0
    0.0115   -5.8212    0.0000 C   0  0  0  0  0  0  0  0  0  0  0  0
    0.6162   -6.3823    0.0000 C   0  0  0  0  0  0  0  0  0  0  0  0
    1.4320   -6.2593    0.0000 C   0  0  0  0  0  0  0  0  0  0  0  0
    1.8445   -5.5449    0.0000 C   0  0  0  0  0  0  0  0  0  0  0  0
    1.5431   -4.7769    0.0000 C   0  0  0  0  0  0  0  0  0  0  0  0
    0.7548   -4.5337    0.0000 C   0  0  0  0  0  0  0  0  0  0  0  0
    0.6318   -3.7179    0.0000 O   0  0  0  0  0  0  0  0  0  0  0  0
    2.5188   -0.3073    0.0000 H   0  0  0  0  0  0  0  0  0  0  0  0
    2.3595    0.3907    0.0000 H   0  0  0  0  0  0  0  0  0  0  0  0
    1.8451    1.0357    0.0000 H   0  0  0  0  0  0  0  0  0  0  0  0
    1.2001    1.3463    0.0000 H   0  0  0  0  0  0  0  0  0  0  0  0
    0.3751    1.3463    0.0000 H   0  0  0  0  0  0  0  0  0  0  0  0
   -0.2699    1.0357    0.0000 H   0  0  0  0  0  0  0  0  0  0  0  0
   -0.7843    0.3907    0.0000 H   0  0  0  0  0  0  0  0  0  0  0  0
   -0.9436   -0.3073    0.0000 H   0  0  0  0  0  0  0  0  0  0  0  0
   -0.7600   -1.1116    0.0000 H   0  0  0  0  0  0  0  0  0  0  0  0
   -0.3137   -1.6713    0.0000 H   0  0  0  0  0  0  0  0  0  0  0  0
   -1.1896   -1.4945    0.0000 H   0  0  0  0  0  0  0  0  0  0  0  0
   -2.0703   -2.1110    0.0000 H   0  0  0  0  0  0  0  0  0  0  0  0
   -2.0703   -3.7610    0.0000 H   0  0  0  0  0  0  0  0  0  0  0  0
    0.0481   -4.1731    0.0000 H   0  0  0  0  0  0  0  0  0  0  0  0
   -0.8112   -5.7595    0.0000 H   0  0  0  0  0  0  0  0  0  0  0  0
   -0.5497   -6.4259    0.0000 H   0  0  0  0  0  0  0  0  0  0  0  0
    0.0551   -6.9871    0.0000 H   0  0  0  0  0  0  0  0  0  0  0  0
    0.7392   -7.1981    0.0000 H   0  0  0  0  0  0  0  0  0  0  0  0
    1.5550   -7.0751    0.0000 H   0  0  0  0  0  0  0  0  0  0  0  0
    2.1465   -6.6718    0.0000 H   0  0  0  0  0  0  0  0  0  0  0  0
    2.5590   -5.9574    0.0000 H   0  0  0  0  0  0  0  0  0  0  0  0
    2.6125   -5.2435    0.0000 H   0  0  0  0  0  0  0  0  0  0  0  0
    2.3111   -4.4755    0.0000 H   0  0  0  0  0  0  0  0  0  0  0  0
    1.7863   -3.9885    0.0000 H   0  0  0  0  0  0  0  0  0  0  0  0
  1  2  2  0  0  0  0
  3  2  1  0  0  0  0
  4  3  1  0  0  0  0
  5  4  1  0  0  0  0
  6  5  1  0  0  0  0
  7  6  1  0  0  0  0
  8  7  1  0  0  0  0
  8  9  1  0  0  0  0
  9 10  2  0  0  0  0
  9 11  1  0  0  0  0
 12 11  4  0  0  0  0
 13 12  4  0  0  0  0
 14 13  4  0  0  0  0
 15 14  4  0  0  0  0
 16 15  4  0  0  0  0
 15 17  1  0  0  0  0
 17 18  2  0  0  0  0
 17 19  1  0  0  0  0
 20 19  1  0  0  0  0
 21 20  1  0  0  0  0
 22 21  1  0  0  0  0
 23 22  1  0  0  0  0
 24 23  1  0  0  0  0
 25 24  1  0  0  0  0
 25 26  2  0  0  0  0
  2  8  1  0  0  0  0
 11 16  4  0  0  0  0
 19 25  1  0  0  0  0
  3 27  1  0  0  0  0
  3 28  1  0  0  0  0
  4 29  1  0  0  0  0
  4 30  1  0  0  0  0
  5 31  1  0  0  0  0
  5 32  1  0  0  0  0
  6 33  1  0  0  0  0
  6 34  1  0  0  0  0
  7 35  1  0  0  0  0
  7 36  1  0  0  0  0
 12 37  1  0  0  0  0
 13 38  1  0  0  0  0
 14 39  1  0  0  0  0
 16 40  1  0  0  0  0
 20 41  1  0  0  0  0
 20 42  1  0  0  0  0
 21 43  1  0  0  0  0
 21 44  1  0  0  0  0
 22 45  1  0  0  0  0
 22 46  1  0  0  0  0
 23 47  1  0  0  0  0
 23 48  1  0  0  0  0
 24 49  1  0  0  0  0
 24 50  1  0  0  0  0
M  END
>  <id_input>
5491

>  <InChIKey>
HXZRLUTUNSQNCG-UHFFFAOYSA-N

>  <substance_name>
unnamed [7381-13-7]

>  <casrn>
7381-13-7

>  <Molecular weight>
356.4155578613281

>  <guideline>
OECD Guideline 404 (Acute Dermal Irritation / Corrosion)

>  <species>
rabbit

>  <type_of_coverage>
semiocclusive

>  <max_duration(hrs)>
4.0

>  <vehicle>
unchanged (no vehicle)

>  <edema/ erythema score>
0.0

>  <max_score>
4.0

>  <reversibility>
0.0

>  <Outcome>
0

>  <StandardizerResult>
Remove Explicit Hydrogens (ID: RemoveExplicitH)
Dearomatize (ID: Dearomatize)
Clear Stereo (ID: ClearStereo)
Wedge Clean (ID: WedgeClean)
Mesomerize (ID: Mesomerize)
Tautomerize (ID: Tautomerize)
Aromatize (ID: Aromatize)
Add Explicit Hydrogens (ID: AddExplicitH)
Neutralize (ID: Neutralize)
Clean 2D (ID: Clean2D)


$$$$

  Mrv1812 02121911042D          

 26 28  0  0  0  0            999 V2000
    0.2279   -2.2360    0.0000 N   0  0  0  0  0  0  0  0  0  0  0  0
    0.9712   -1.8780    0.0000 C   0  0  0  0  0  0  0  0  0  0  0  0
    1.5760   -2.4392    0.0000 C   0  0  0  0  0  0  0  0  0  0  0  0
    2.3643   -2.1960    0.0000 C   0  0  0  0  0  0  0  0  0  0  0  0
    2.5479   -1.3917    0.0000 C   0  0  0  0  0  0  0  0  0  0  0  0
    1.9431   -0.8306    0.0000 C   0  0  0  0  0  0  0  0  0  0  0  0
    1.1548   -1.0737    0.0000 C   0  0  0  0  0  0  0  0  0  0  0  0
    0.6404   -0.4287    0.0000 C   0  0  0  0  0  0  0  0  0  0  0  0
   -0.1846   -0.4287    0.0000 C   0  0  0  0  0  0  0  0  0  0  0  0
   -0.6990   -1.0737    0.0000 C   0  0  0  0  0  0  0  0  0  0  0  0
   -1.4873   -0.8306    0.0000 C   0  0  0  0  0  0  0  0  0  0  0  0
   -2.0921   -1.3917    0.0000 C   0  0  0  0  0  0  0  0  0  0  0  0
   -1.9085   -2.1960    0.0000 C   0  0  0  0  0  0  0  0  0  0  0  0
   -1.1202   -2.4392    0.0000 C   0  0  0  0  0  0  0  0  0  0  0  0
   -0.5154   -1.8780    0.0000 C   0  0  0  0  0  0  0  0  0  0  0  0
    0.2279   -3.0610    0.0000 H   0  0  0  0  0  0  0  0  0  0  0  0
    1.3924   -3.2435    0.0000 H   0  0  0  0  0  0  0  0  0  0  0  0
    2.9691   -2.7572    0.0000 H   0  0  0  0  0  0  0  0  0  0  0  0
    3.3362   -1.1485    0.0000 H   0  0  0  0  0  0  0  0  0  0  0  0
    2.1267   -0.0262    0.0000 H   0  0  0  0  0  0  0  0  0  0  0  0
    0.9984    0.3146    0.0000 H   0  0  0  0  0  0  0  0  0  0  0  0
   -0.5426    0.3146    0.0000 H   0  0  0  0  0  0  0  0  0  0  0  0
   -1.6709   -0.0262    0.0000 H   0  0  0  0  0  0  0  0  0  0  0  0
   -2.8804   -1.1485    0.0000 H   0  0  0  0  0  0  0  0  0  0  0  0
   -2.5133   -2.7572    0.0000 H   0  0  0  0  0  0  0  0  0  0  0  0
   -0.9366   -3.2435    0.0000 H   0  0  0  0  0  0  0  0  0  0  0  0
  2  1  1  0  0  0  0
  2  3  4  0  0  0  0
  3  4  4  0  0  0  0
  4  5  4  0  0  0  0
  5  6  4  0  0  0  0
  6  7  4  0  0  0  0
  8  7  1  0  0  0  0
  9  8  2  0  0  0  0
 10  9  1  0  0  0  0
 10 11  4  0  0  0  0
 11 12  4  0  0  0  0
 12 13  4  0  0  0  0
 13 14  4  0  0  0  0
 14 15  4  0  0  0  0
  1 15  1  0  0  0  0
  7  2  4  0  0  0  0
 15 10  4  0  0  0  0
  1 16  1  0  0  0  0
  3 17  1  0  0  0  0
  4 18  1  0  0  0  0
  5 19  1  0  0  0  0
  6 20  1  0  0  0  0
  8 21  1  0  0  0  0
  9 22  1  0  0  0  0
 11 23  1  0  0  0  0
 12 24  1  0  0  0  0
 13 25  1  0  0  0  0
 14 26  1  0  0  0  0
M  END
>  <id_input>
2401

>  <InChIKey>
LCGTWRLJTMHIQZ-UHFFFAOYSA-N

>  <substance_name>
2-azatricyclo[9.4.0.0????,??????]pentadeca-1(11),3,5,7,9,12,14-heptaene

>  <casrn>
256-96-2

>  <Molecular weight>
193.24383544921875

>  <guideline>
OECD Guideline 404 (Acute Dermal Irritation / Corrosion)

>  <species>
rabbit

>  <type_of_coverage>
occlusive

>  <max_duration(hrs)>
4.0

>  <vehicle>
unchanged (no vehicle)

>  <edema/ erythema score>
0.67

>  <max_score>
4.0

>  <reversibility>
0.0

>  <Outcome>
0

>  <StandardizerResult>
Remove Explicit Hydrogens (ID: RemoveExplicitH)
Dearomatize (ID: Dearomatize)
Clear Stereo (ID: ClearStereo)
Wedge Clean (ID: WedgeClean)
Mesomerize (ID: Mesomerize)
Tautomerize (ID: Tautomerize)
Aromatize (ID: Aromatize)
Add Explicit Hydrogens (ID: AddExplicitH)
Neutralize (ID: Neutralize)
Clean 2D (ID: Clean2D)


$$$$

  Mrv1812 02121911042D          

 24 25  0  0  0  0            999 V2000
   -1.2467   -1.2469    0.0000 O   0  0  0  0  0  0  0  0  0  0  0  0
   -1.2467   -0.4219    0.0000 C   0  0  0  0  0  0  0  0  0  0  0  0
   -0.5323   -0.0094    0.0000 C   0  0  0  0  0  0  0  0  0  0  0  0
   -0.5323    0.8156    0.0000 C   0  0  0  0  0  0  0  0  0  0  0  0
    0.1822    1.2281    0.0000 N   0  0  0  0  0  0  0  0  0  0  0  0
    0.8967    0.8156    0.0000 C   0  0  0  0  0  0  0  0  0  0  0  0
    0.8967   -0.0094    0.0000 C   0  0  0  0  0  0  0  0  0  0  0  0
    0.1822   -0.4219    0.0000 N   0  0  0  0  0  0  0  0  0  0  0  0
    0.0447    0.1281    0.0000 C   0  0  0  0  0  0  0  0  0  0  0  0
    0.0447    0.6781    0.0000 C   0  0  0  0  0  0  0  0  0  0  0  0
   -1.9612   -1.6594    0.0000 H   0  0  0  0  0  0  0  0  0  0  0  0
   -1.7001    0.2673    0.0000 H   0  0  0  0  0  0  0  0  0  0  0  0
   -2.0704   -0.3740    0.0000 H   0  0  0  0  0  0  0  0  0  0  0  0
   -1.2467    0.4031    0.0000 H   0  0  0  0  0  0  0  0  0  0  0  0
   -0.6755    1.6280    0.0000 H   0  0  0  0  0  0  0  0  0  0  0  0
   -1.1643    1.3459    0.0000 H   0  0  0  0  0  0  0  0  0  0  0  0
    1.7203    0.8635    0.0000 H   0  0  0  0  0  0  0  0  0  0  0  0
    1.3500    1.5048    0.0000 H   0  0  0  0  0  0  0  0  0  0  0  0
    1.3500   -0.6987    0.0000 H   0  0  0  0  0  0  0  0  0  0  0  0
    1.7203   -0.0574    0.0000 H   0  0  0  0  0  0  0  0  0  0  0  0
    0.7990    0.4621    0.0000 H   0  0  0  0  0  0  0  0  0  0  0  0
    0.4947    0.8195    0.0000 H   0  0  0  0  0  0  0  0  0  0  0  0
   -0.2375   -0.0972    0.0000 H   0  0  0  0  0  0  0  0  0  0  0  0
    0.7098    0.1899    0.0000 H   0  0  0  0  0  0  0  0  0  0  0  0
  1  2  1  0  0  0  0
  2  3  1  0  0  0  0
  4  3  1  0  0  0  0
  5  4  1  0  0  0  0
  5  6  1  0  0  0  0
  6  7  1  0  0  0  0
  7  8  1  0  0  0  0
  8  9  1  0  0  0  0
  9 10  1  0  0  0  0
 10  5  1  0  0  0  0
  3  8  1  0  0  0  0
  1 11  1  0  0  0  0
  2 12  1  0  0  0  0
  2 13  1  0  0  0  0
  3 14  1  0  0  0  0
  4 15  1  0  0  0  0
  4 16  1  0  0  0  0
  6 17  1  0  0  0  0
  6 18  1  0  0  0  0
  7 19  1  0  0  0  0
  7 20  1  0  0  0  0
  9 21  1  0  0  0  0
  9 22  1  0  0  0  0
 10 23  1  0  0  0  0
 10 24  1  0  0  0  0
M  END
>  <id_input>
1806

>  <InChIKey>
MPJZCYUPWINKPK-UHFFFAOYSA-N

>  <substance_name>
1,4-diazabicyclo[2.2.2]octan-2-ylmethanol

>  <casrn>
76950-43-1

>  <Molecular weight>
142.19886779785156

>  <guideline>
OECD Guideline 404 (Acute Dermal Irritation / Corrosion)

>  <species>
rabbit

>  <type_of_coverage>
semiocclusive

>  <max_duration(hrs)>
4.0

>  <vehicle>
water

>  <edema/ erythema score>
0.0

>  <max_score>
4.0

>  <reversibility>
0.0

>  <Outcome>
0

>  <StandardizerResult>
Remove Explicit Hydrogens (ID: RemoveExplicitH)
Clear Stereo (ID: ClearStereo)
Wedge Clean (ID: WedgeClean)
Mesomerize (ID: Mesomerize)
Tautomerize (ID: Tautomerize)
Add Explicit Hydrogens (ID: AddExplicitH)
Neutralize (ID: Neutralize)
Clean 2D (ID: Clean2D)


$$$$

  Mrv1812 02121911042D          

 14 14  0  0  0  0            999 V2000
    2.1829    0.2652    0.0000 O   0  0  0  0  0  0  0  0  0  0  0  0
    1.4684    0.6777    0.0000 N   0  0  0  0  0  0  0  0  0  0  0  0
    1.4684    1.5027    0.0000 O   0  0  0  0  0  0  0  0  0  0  0  0
    0.7540    0.2652    0.0000 C   0  0  0  0  0  0  0  0  0  0  0  0
    0.0395    0.6777    0.0000 C   0  0  0  0  0  0  0  0  0  0  0  0
   -0.6750    0.2652    0.0000 C   0  0  0  0  0  0  0  0  0  0  0  0
   -0.6750   -0.5598    0.0000 C   0  0  0  0  0  0  0  0  0  0  0  0
   -1.3895   -0.9723    0.0000 Cl  0  0  0  0  0  0  0  0  0  0  0  0
    0.0395   -0.9723    0.0000 C   0  0  0  0  0  0  0  0  0  0  0  0
    0.0395   -1.7973    0.0000 Cl  0  0  0  0  0  0  0  0  0  0  0  0
    0.7540   -0.5598    0.0000 C   0  0  0  0  0  0  0  0  0  0  0  0
    0.0395    1.5027    0.0000 H   0  0  0  0  0  0  0  0  0  0  0  0
   -1.3895    0.6777    0.0000 H   0  0  0  0  0  0  0  0  0  0  0  0
    1.4684   -0.9723    0.0000 H   0  0  0  0  0  0  0  0  0  0  0  0
  1  2  2  0  0  0  0
  2  3  2  0  0  0  0
  2  4  1  0  0  0  0
  5  4  4  0  0  0  0
  6  5  4  0  0  0  0
  7  6  4  0  0  0  0
  7  8  1  0  0  0  0
  9  7  4  0  0  0  0
  9 10  1  0  0  0  0
 11  9  4  0  0  0  0
  4 11  4  0  0  0  0
  5 12  1  0  0  0  0
  6 13  1  0  0  0  0
 11 14  1  0  0  0  0
M  END
>  <id_input>
1729

>  <InChIKey>
NTBYINQTYWZXLH-UHFFFAOYSA-N

>  <substance_name>
1,2-dichloro-4-nitrobenzene

>  <casrn>
99-54-7

>  <Molecular weight>
191.99952697753906

>  <guideline>
OECD Guideline 404 (Acute Dermal Irritation / Corrosion)

>  <species>
rabbit

>  <type_of_coverage>
semiocclusive

>  <max_duration(hrs)>
4.0

>  <vehicle>
physiological saline

>  <edema/ erythema score>
0.2

>  <max_score>
4.0

>  <reversibility>
0.0

>  <Outcome>
0

>  <StandardizerResult>
Remove Explicit Hydrogens (ID: RemoveExplicitH)
Dearomatize (ID: Dearomatize)
Clear Stereo (ID: ClearStereo)
Wedge Clean (ID: WedgeClean)
Mesomerize (ID: Mesomerize)
Tautomerize (ID: Tautomerize)
Aromatize (ID: Aromatize)
Add Explicit Hydrogens (ID: AddExplicitH)
Neutralize (ID: Neutralize)
Clean 2D (ID: Clean2D)


$$$$

  Mrv1812 02121911042D          

 27 26  0  0  0  0            999 V2000
    3.9349   -0.7491    0.0000 C   0  0  0  0  0  0  0  0  0  0  0  0
    3.5224   -0.0346    0.0000 C   0  0  0  0  0  0  0  0  0  0  0  0
    3.9349    0.6799    0.0000 O   0  0  0  0  0  0  0  0  0  0  0  0
    2.6974   -0.0346    0.0000 C   0  0  0  0  0  0  0  0  0  0  0  0
    2.2849    0.6799    0.0000 C   0  0  0  0  0  0  0  0  0  0  0  0
    2.9993    1.0924    0.0000 C   0  0  0  0  0  0  0  0  0  0  0  0
    1.5704    0.2674    0.0000 C   0  0  0  0  0  0  0  0  0  0  0  0
    1.8724    1.3943    0.0000 N   0  0  0  0  0  0  0  0  0  0  0  0
    1.0474    1.3943    0.0000 C   0  0  0  0  0  0  0  0  0  0  0  0
    0.6349    0.6799    0.0000 O   0  0  0  0  0  0  0  0  0  0  0  0
    0.6349    2.1088    0.0000 C   0  0  0  0  0  0  0  0  0  0  0  0
   -0.1901    2.1088    0.0000 C   0  0  0  0  0  0  0  0  0  0  0  0
    3.2204   -1.1616    0.0000 H   0  0  0  0  0  0  0  0  0  0  0  0
    4.3474   -1.4635    0.0000 H   0  0  0  0  0  0  0  0  0  0  0  0
    4.6493   -0.3366    0.0000 H   0  0  0  0  0  0  0  0  0  0  0  0
    2.0081   -0.4879    0.0000 H   0  0  0  0  0  0  0  0  0  0  0  0
    2.6494   -0.8582    0.0000 H   0  0  0  0  0  0  0  0  0  0  0  0
    3.4118    0.3779    0.0000 H   0  0  0  0  0  0  0  0  0  0  0  0
    3.7138    1.5049    0.0000 H   0  0  0  0  0  0  0  0  0  0  0  0
    2.5868    1.8068    0.0000 H   0  0  0  0  0  0  0  0  0  0  0  0
    1.4624    1.0853    0.0000 H   0  0  0  0  0  0  0  0  0  0  0  0
    0.7733    0.4803    0.0000 H   0  0  0  0  0  0  0  0  0  0  0  0
    1.0690   -0.3877    0.0000 H   0  0  0  0  0  0  0  0  0  0  0  0
    1.6588    2.1912    0.0000 H   0  0  0  0  0  0  0  0  0  0  0  0
    1.0474    2.8233    0.0000 H   0  0  0  0  0  0  0  0  0  0  0  0
   -0.6026    2.8233    0.0000 H   0  0  0  0  0  0  0  0  0  0  0  0
   -0.6026    1.3943    0.0000 H   0  0  0  0  0  0  0  0  0  0  0  0
  1  2  1  0  0  0  0
  2  3  2  0  0  0  0
  2  4  1  0  0  0  0
  4  5  1  0  0  0  0
  5  6  1  0  0  0  0
  5  7  1  0  0  0  0
  5  8  1  0  0  0  0
  8  9  1  0  0  0  0
  9 10  2  0  0  0  0
  9 11  1  0  0  0  0
 11 12  2  0  0  0  0
  1 13  1  0  0  0  0
  1 14  1  0  0  0  0
  1 15  1  0  0  0  0
  4 16  1  0  0  0  0
  4 17  1  0  0  0  0
  6 18  1  0  0  0  0
  6 19  1  0  0  0  0
  6 20  1  0  0  0  0
  7 21  1  0  0  0  0
  7 22  1  0  0  0  0
  7 23  1  0  0  0  0
  8 24  1  0  0  0  0
 11 25  1  0  0  0  0
 12 26  1  0  0  0  0
 12 27  1  0  0  0  0
M  END
>  <id_input>
3433

>  <InChIKey>
OMNKZBIFPJNNIO-UHFFFAOYSA-N

>  <substance_name>
N-(2-methyl-4-oxopentan-2-yl)prop-2-enamide

>  <casrn>
2873-97-4

>  <Molecular weight>
169.2209014892578

>  <guideline>
EU Method B.4 (Acute Toxicity: Dermal Irritation / Corrosion)

>  <species>
rabbit

>  <type_of_coverage>
semiocclusive

>  <max_duration(hrs)>
4.0

>  <vehicle>
water

>  <edema/ erythema score>
0.0

>  <max_score>
0.0

>  <reversibility>
0.0

>  <Outcome>
0

>  <StandardizerResult>
Remove Explicit Hydrogens (ID: RemoveExplicitH)
Clear Stereo (ID: ClearStereo)
Wedge Clean (ID: WedgeClean)
Mesomerize (ID: Mesomerize)
Tautomerize (ID: Tautomerize)
Add Explicit Hydrogens (ID: AddExplicitH)
Neutralize (ID: Neutralize)
Clean 2D (ID: Clean2D)


$$$$

  Mrv1812 02121911042D          

 34 34  0  0  0  0            999 V2000
    2.3999   -2.0762    0.0000 C   0  0  0  0  0  0  0  0  0  0  0  0
    2.3999   -1.2512    0.0000 C   0  0  0  0  0  0  0  0  0  0  0  0
    3.1144   -0.8387    0.0000 O   0  0  0  0  0  0  0  0  0  0  0  0
    1.6854   -0.8387    0.0000 C   0  0  0  0  0  0  0  0  0  0  0  0
    1.6854   -0.0137    0.0000 C   0  0  0  0  0  0  0  0  0  0  0  0
    0.9710    0.3988    0.0000 C   0  0  0  0  0  0  0  0  0  0  0  0
    0.9710    1.2238    0.0000 C   0  0  0  0  0  0  0  0  0  0  0  0
    1.6854    1.6363    0.0000 C   0  0  0  0  0  0  0  0  0  0  0  0
    0.2565    1.6363    0.0000 C   0  0  0  0  0  0  0  0  0  0  0  0
   -0.4580    1.2238    0.0000 C   0  0  0  0  0  0  0  0  0  0  0  0
   -0.4580    0.3988    0.0000 C   0  0  0  0  0  0  0  0  0  0  0  0
    0.2565   -0.0137    0.0000 C   0  0  0  0  0  0  0  0  0  0  0  0
   -0.2738   -0.6457    0.0000 C   0  0  0  0  0  0  0  0  0  0  0  0
    0.7868   -0.6457    0.0000 C   0  0  0  0  0  0  0  0  0  0  0  0
    1.5749   -2.0762    0.0000 H   0  0  0  0  0  0  0  0  0  0  0  0
    2.3999   -2.9012    0.0000 H   0  0  0  0  0  0  0  0  0  0  0  0
    3.2249   -2.0762    0.0000 H   0  0  0  0  0  0  0  0  0  0  0  0
    1.3890   -1.6086    0.0000 H   0  0  0  0  0  0  0  0  0  0  0  0
    2.3999    0.3988    0.0000 H   0  0  0  0  0  0  0  0  0  0  0  0
    2.0979    0.9218    0.0000 H   0  0  0  0  0  0  0  0  0  0  0  0
    2.3999    2.0488    0.0000 H   0  0  0  0  0  0  0  0  0  0  0  0
    1.2729    2.3508    0.0000 H   0  0  0  0  0  0  0  0  0  0  0  0
    0.6268    2.3735    0.0000 H   0  0  0  0  0  0  0  0  0  0  0  0
   -0.1138    2.3735    0.0000 H   0  0  0  0  0  0  0  0  0  0  0  0
   -0.9113    1.9131    0.0000 H   0  0  0  0  0  0  0  0  0  0  0  0
   -1.2816    1.2718    0.0000 H   0  0  0  0  0  0  0  0  0  0  0  0
   -1.2816    0.3508    0.0000 H   0  0  0  0  0  0  0  0  0  0  0  0
   -0.9113   -0.2905    0.0000 H   0  0  0  0  0  0  0  0  0  0  0  0
   -0.9441   -1.1266    0.0000 H   0  0  0  0  0  0  0  0  0  0  0  0
   -0.1243   -1.4570    0.0000 H   0  0  0  0  0  0  0  0  0  0  0  0
    0.5239   -0.8562    0.0000 H   0  0  0  0  0  0  0  0  0  0  0  0
    0.6684   -1.4621    0.0000 H   0  0  0  0  0  0  0  0  0  0  0  0
    1.2578   -1.3230    0.0000 H   0  0  0  0  0  0  0  0  0  0  0  0
    1.2125    0.0610    0.0000 H   0  0  0  0  0  0  0  0  0  0  0  0
  1  2  1  0  0  0  0
  2  3  2  0  0  0  0
  4  2  1  4  0  0  0
  4  5  2  0  0  0  0
  5  6  1  0  0  0  0
  7  6  2  0  0  0  0
  7  8  1  0  0  0  0
  9  7  1  0  0  0  0
 10  9  1  0  0  0  0
 11 10  1  0  0  0  0
 12 11  1  0  0  0  0
 12 13  1  0  0  0  0
 12 14  1  0  0  0  0
  6 12  1  0  0  0  0
  1 15  1  0  0  0  0
  1 16  1  0  0  0  0
  1 17  1  0  0  0  0
  4 18  1  0  0  0  0
  5 19  1  0  0  0  0
  8 20  1  0  0  0  0
  8 21  1  0  0  0  0
  8 22  1  0  0  0  0
  9 23  1  0  0  0  0
  9 24  1  0  0  0  0
 10 25  1  0  0  0  0
 10 26  1  0  0  0  0
 11 27  1  0  0  0  0
 11 28  1  0  0  0  0
 13 29  1  0  0  0  0
 13 30  1  0  0  0  0
 13 31  1  0  0  0  0
 14 32  1  0  0  0  0
 14 33  1  0  0  0  0
 14 34  1  0  0  0  0
M  END
>  <id_input>
2818

>  <InChIKey>
PSQYTAPXSHCGMF-UHFFFAOYSA-N

>  <substance_name>
4-(2,6,6-trimethylcyclohex-1-en-1-yl)but-3-en-2-one

>  <casrn>
79-77-6

>  <Molecular weight>
192.29730224609375

>  <guideline>
OECD Guideline 404 (Acute Dermal Irritation / Corrosion)

>  <species>
rabbit

>  <type_of_coverage>
semiocclusive

>  <max_duration(hrs)>
4.0

>  <vehicle>
unchanged (no vehicle)

>  <edema/ erythema score>
0.0

>  <max_score>
4.0

>  <reversibility>
0.0

>  <Outcome>
0

>  <StandardizerResult>
Remove Explicit Hydrogens (ID: RemoveExplicitH)
Clear Stereo (ID: ClearStereo)
Wedge Clean (ID: WedgeClean)
Mesomerize (ID: Mesomerize)
Tautomerize (ID: Tautomerize)
Add Explicit Hydrogens (ID: AddExplicitH)
Neutralize (ID: Neutralize)
Clean 2D (ID: Clean2D)


$$$$

  Mrv1812 02121911042D          

 23 24  0  0  0  0            999 V2000
   -2.0528   -0.3709    0.0000 B   0  0  0  0  0  0  0  0  0  0  0  0
   -1.3383    0.0416    0.0000 C   0  0  0  0  0  0  0  0  0  0  0  0
   -1.3383    0.8666    0.0000 C   0  0  0  0  0  0  0  0  0  0  0  0
   -0.6238    1.2791    0.0000 C   0  0  0  0  0  0  0  0  0  0  0  0
    0.0906    0.8666    0.0000 C   0  0  0  0  0  0  0  0  0  0  0  0
    0.8051    1.2791    0.0000 C   0  0  0  0  0  0  0  0  0  0  0  0
    1.5196    0.8666    0.0000 C   0  0  0  0  0  0  0  0  0  0  0  0
    1.5196    0.0416    0.0000 C   0  0  0  0  0  0  0  0  0  0  0  0
    0.8051   -0.3709    0.0000 C   0  0  0  0  0  0  0  0  0  0  0  0
    0.0906    0.0416    0.0000 C   0  0  0  0  0  0  0  0  0  0  0  0
   -0.6238   -0.3709    0.0000 C   0  0  0  0  0  0  0  0  0  0  0  0
    2.2340    1.2791    0.0000 O   0  0  0  0  0  0  0  0  0  0  0  0
   -2.0528   -1.1959    0.0000 O   0  0  0  0  0  0  0  0  0  0  0  0
   -2.7673    0.0416    0.0000 O   0  0  0  0  0  0  0  0  0  0  0  0
   -2.0528    1.2791    0.0000 H   0  0  0  0  0  0  0  0  0  0  0  0
   -0.6238    2.1041    0.0000 H   0  0  0  0  0  0  0  0  0  0  0  0
    0.8051    2.1041    0.0000 H   0  0  0  0  0  0  0  0  0  0  0  0
    2.2340   -0.3709    0.0000 H   0  0  0  0  0  0  0  0  0  0  0  0
    0.8051   -1.1959    0.0000 H   0  0  0  0  0  0  0  0  0  0  0  0
   -0.6238   -1.1959    0.0000 H   0  0  0  0  0  0  0  0  0  0  0  0
    2.9485    0.8666    0.0000 H   0  0  0  0  0  0  0  0  0  0  0  0
   -2.7673   -1.6084    0.0000 H   0  0  0  0  0  0  0  0  0  0  0  0
   -2.7673    0.8666    0.0000 H   0  0  0  0  0  0  0  0  0  0  0  0
  1  2  1  0  0  0  0
  3  2  4  0  0  0  0
  4  3  4  0  0  0  0
  5  4  4  0  0  0  0
  5  6  4  0  0  0  0
  6  7  4  0  0  0  0
  7  8  4  0  0  0  0
  8  9  4  0  0  0  0
  9 10  4  0  0  0  0
 11 10  4  0  0  0  0
  7 12  1  0  0  0  0
  1 13  1  0  0  0  0
  1 14  1  0  0  0  0
  2 11  4  0  0  0  0
 10  5  4  0  0  0  0
  3 15  1  0  0  0  0
  4 16  1  0  0  0  0
  6 17  1  0  0  0  0
  8 18  1  0  0  0  0
  9 19  1  0  0  0  0
 11 20  1  0  0  0  0
 12 21  1  0  0  0  0
 13 22  1  0  0  0  0
 14 23  1  0  0  0  0
M  END
>  <id_input>
403

>  <InChIKey>
SNJANQMHRGSHFN-UHFFFAOYSA-N

>  <substance_name>
-

>  <casrn>
173194-95-1

>  <Molecular weight>
187.9876708984375

>  <guideline>
OECD Guideline 404 (Acute Dermal Irritation / Corrosion)

>  <species>
rabbit

>  <type_of_coverage>
semiocclusive

>  <max_duration(hrs)>
4.0

>  <vehicle>
water

>  <edema/ erythema score>
0.0

>  <max_score>
0.0

>  <reversibility>
0.0

>  <Outcome>
0

>  <StandardizerResult>
Remove Explicit Hydrogens (ID: RemoveExplicitH)
Dearomatize (ID: Dearomatize)
Clear Stereo (ID: ClearStereo)
Wedge Clean (ID: WedgeClean)
Mesomerize (ID: Mesomerize)
Tautomerize (ID: Tautomerize)
Aromatize (ID: Aromatize)
Add Explicit Hydrogens (ID: AddExplicitH)
Neutralize (ID: Neutralize)
Clean 2D (ID: Clean2D)


$$$$

  Mrv1812 02121911042D          

 25 25  0  0  0  0            999 V2000
   -0.2582    1.2802    0.0000 C   0  0  0  0  0  0  0  0  0  0  0  0
    0.2938    0.6671    0.0000 C   0  0  0  0  0  0  0  0  0  0  0  0
    0.8459    1.2802    0.0000 C   0  0  0  0  0  0  0  0  0  0  0  0
   -0.3736    0.1822    0.0000 N   0  0  0  0  0  0  0  0  0  0  0  0
   -1.1582    0.4371    0.0000 C   0  0  0  0  0  0  0  0  0  0  0  0
   -1.3298    1.2441    0.0000 O   0  0  0  0  0  0  0  0  0  0  0  0
   -0.1187   -0.6024    0.0000 C   0  0  0  0  0  0  0  0  0  0  0  0
   -0.6036   -1.2699    0.0000 O   0  0  0  0  0  0  0  0  0  0  0  0
    0.7063   -0.6024    0.0000 N   0  0  0  0  0  0  0  0  0  0  0  0
    1.1913   -1.2699    0.0000 C   0  0  0  0  0  0  0  0  0  0  0  0
    2.0117   -1.1836    0.0000 O   0  0  0  0  0  0  0  0  0  0  0  0
    0.9613    0.1822    0.0000 C   0  0  0  0  0  0  0  0  0  0  0  0
    1.7459    0.4371    0.0000 O   0  0  0  0  0  0  0  0  0  0  0  0
    0.3549    1.8322    0.0000 H   0  0  0  0  0  0  0  0  0  0  0  0
   -0.8102    1.8933    0.0000 H   0  0  0  0  0  0  0  0  0  0  0  0
   -0.8713    0.7282    0.0000 H   0  0  0  0  0  0  0  0  0  0  0  0
    1.1803    0.5260    0.0000 H   0  0  0  0  0  0  0  0  0  0  0  0
    1.6709    1.2777    0.0000 H   0  0  0  0  0  0  0  0  0  0  0  0
    1.1849    2.0323    0.0000 H   0  0  0  0  0  0  0  0  0  0  0  0
   -1.9539    0.2190    0.0000 H   0  0  0  0  0  0  0  0  0  0  0  0
   -1.4584   -0.3314    0.0000 H   0  0  0  0  0  0  0  0  0  0  0  0
   -2.1325    1.4344    0.0000 H   0  0  0  0  0  0  0  0  0  0  0  0
    0.5531   -1.7928    0.0000 H   0  0  0  0  0  0  0  0  0  0  0  0
    1.2296   -2.0940    0.0000 H   0  0  0  0  0  0  0  0  0  0  0  0
    2.4967   -1.8511    0.0000 H   0  0  0  0  0  0  0  0  0  0  0  0
  1  2  1  0  0  0  0
  2  3  1  0  0  0  0
  4  2  1  0  0  0  0
  4  5  1  0  0  0  0
  5  6  1  0  0  0  0
  7  4  1  0  0  0  0
  7  8  2  0  0  0  0
  9  7  1  0  0  0  0
  9 10  1  0  0  0  0
 10 11  1  0  0  0  0
 12  9  1  0  0  0  0
 12 13  2  0  0  0  0
  2 12  1  0  0  0  0
  1 14  1  0  0  0  0
  1 15  1  0  0  0  0
  1 16  1  0  0  0  0
  3 17  1  0  0  0  0
  3 18  1  0  0  0  0
  3 19  1  0  0  0  0
  5 20  1  0  0  0  0
  5 21  1  0  0  0  0
  6 22  1  0  0  0  0
 10 23  1  0  0  0  0
 10 24  1  0  0  0  0
 11 25  1  0  0  0  0
M  END
>  <id_input>
1761

>  <InChIKey>
WSDISUOETYTPRL-UHFFFAOYSA-N

>  <substance_name>
1,3-bis(hydroxymethyl)-5,5-dimethylimidazolidine-2,4-dione

>  <casrn>
6440-58-0

>  <Molecular weight>
188.18118286132812

>  <guideline>
EPA OPP 81-5 (Acute Dermal Irritation)

>  <species>
rabbit

>  <type_of_coverage>
semiocclusive

>  <max_duration(hrs)>
4.0

>  <vehicle>
unchanged (no vehicle)

>  <edema/ erythema score>
0.73

>  <reversibility>
0.0

>  <Outcome>
0

>  <StandardizerResult>
Remove Explicit Hydrogens (ID: RemoveExplicitH)
Clear Stereo (ID: ClearStereo)
Wedge Clean (ID: WedgeClean)
Mesomerize (ID: Mesomerize)
Tautomerize (ID: Tautomerize)
Add Explicit Hydrogens (ID: AddExplicitH)
Neutralize (ID: Neutralize)
Clean 2D (ID: Clean2D)


$$$$

  Mrv1812 02121911042D          

 34 35  0  0  0  0            999 V2000
   -1.6632   -1.6129    0.0000 O   0  0  0  0  0  0  0  0  0  0  0  0
   -1.6632   -2.4379    0.0000 C   0  0  0  0  0  0  0  0  0  0  0  0
   -2.3777   -2.8504    0.0000 C   0  0  0  0  0  0  0  0  0  0  0  0
   -3.0921   -2.4379    0.0000 C   0  0  0  0  0  0  0  0  0  0  0  0
   -3.0921   -1.6129    0.0000 C   0  0  0  0  0  0  0  0  0  0  0  0
   -3.8066   -1.2004    0.0000 C   0  0  0  0  0  0  0  0  0  0  0  0
   -4.5211   -1.6129    0.0000 C   0  0  0  0  0  0  0  0  0  0  0  0
   -4.5211   -2.4379    0.0000 C   0  0  0  0  0  0  0  0  0  0  0  0
   -3.8066   -2.8504    0.0000 C   0  0  0  0  0  0  0  0  0  0  0  0
   -0.9487   -2.8504    0.0000 O   0  0  0  0  0  0  0  0  0  0  0  0
   -0.2343   -2.4379    0.0000 C   0  0  0  0  0  0  0  0  0  0  0  0
    0.4802   -2.8504    0.0000 C   0  0  0  0  0  0  0  0  0  0  0  0
    1.1947   -2.4379    0.0000 C   0  0  0  0  0  0  0  0  0  0  0  0
    1.9092   -2.8504    0.0000 C   0  0  0  0  0  0  0  0  0  0  0  0
    2.6236   -2.4379    0.0000 C   0  0  0  0  0  0  0  0  0  0  0  0
    2.6236   -1.6129    0.0000 C   0  0  0  0  0  0  0  0  0  0  0  0
    1.9092   -1.2004    0.0000 C   0  0  0  0  0  0  0  0  0  0  0  0
    1.1947   -1.6129    0.0000 C   0  0  0  0  0  0  0  0  0  0  0  0
   -2.7479   -3.5876    0.0000 H   0  0  0  0  0  0  0  0  0  0  0  0
   -2.0074   -3.5876    0.0000 H   0  0  0  0  0  0  0  0  0  0  0  0
   -2.3777   -1.2004    0.0000 H   0  0  0  0  0  0  0  0  0  0  0  0
   -3.8066   -0.3754    0.0000 H   0  0  0  0  0  0  0  0  0  0  0  0
   -5.2356   -1.2004    0.0000 H   0  0  0  0  0  0  0  0  0  0  0  0
   -5.2356   -2.8504    0.0000 H   0  0  0  0  0  0  0  0  0  0  0  0
   -3.8066   -3.6754    0.0000 H   0  0  0  0  0  0  0  0  0  0  0  0
    0.1360   -1.7006    0.0000 H   0  0  0  0  0  0  0  0  0  0  0  0
   -0.6045   -1.7006    0.0000 H   0  0  0  0  0  0  0  0  0  0  0  0
    0.1100   -3.5876    0.0000 H   0  0  0  0  0  0  0  0  0  0  0  0
    0.8505   -3.5876    0.0000 H   0  0  0  0  0  0  0  0  0  0  0  0
    1.9092   -3.6754    0.0000 H   0  0  0  0  0  0  0  0  0  0  0  0
    3.3381   -2.8504    0.0000 H   0  0  0  0  0  0  0  0  0  0  0  0
    3.3381   -1.2004    0.0000 H   0  0  0  0  0  0  0  0  0  0  0  0
    1.9092   -0.3754    0.0000 H   0  0  0  0  0  0  0  0  0  0  0  0
    0.4802   -1.2004    0.0000 H   0  0  0  0  0  0  0  0  0  0  0  0
  1  2  2  0  0  0  0
  2  3  1  0  0  0  0
  3  4  1  0  0  0  0
  5  4  4  0  0  0  0
  6  5  4  0  0  0  0
  7  6  4  0  0  0  0
  8  7  4  0  0  0  0
  9  8  4  0  0  0  0
  2 10  1  0  0  0  0
 10 11  1  0  0  0  0
 11 12  1  0  0  0  0
 12 13  1  0  0  0  0
 14 13  4  0  0  0  0
 15 14  4  0  0  0  0
 16 15  4  0  0  0  0
 17 16  4  0  0  0  0
 18 17  4  0  0  0  0
  4  9  4  0  0  0  0
 13 18  4  0  0  0  0
  3 19  1  0  0  0  0
  3 20  1  0  0  0  0
  5 21  1  0  0  0  0
  6 22  1  0  0  0  0
  7 23  1  0  0  0  0
  8 24  1  0  0  0  0
  9 25  1  0  0  0  0
 11 26  1  0  0  0  0
 11 27  1  0  0  0  0
 12 28  1  0  0  0  0
 12 29  1  0  0  0  0
 14 30  1  0  0  0  0
 15 31  1  0  0  0  0
 16 32  1  0  0  0  0
 17 33  1  0  0  0  0
 18 34  1  0  0  0  0
M  END
>  <id_input>
2594

>  <InChIKey>
ZOZIRNMDEZKZHM-UHFFFAOYSA-N

>  <substance_name>
2-phenylethyl 2-phenylacetate

>  <casrn>
102-20-5

>  <Molecular weight>
240.2970428466797

>  <guideline>
OECD Guideline 404 (Acute Dermal Irritation / Corrosion)

>  <species>
rabbit

>  <type_of_coverage>
occlusive

>  <max_duration(hrs)>
4.0

>  <vehicle>
unchanged (no vehicle)

>  <edema/ erythema score>
0.5

>  <max_score>
4.0

>  <reversibility>
0.0

>  <Outcome>
0

>  <StandardizerResult>
Remove Explicit Hydrogens (ID: RemoveExplicitH)
Dearomatize (ID: Dearomatize)
Clear Stereo (ID: ClearStereo)
Wedge Clean (ID: WedgeClean)
Mesomerize (ID: Mesomerize)
Tautomerize (ID: Tautomerize)
Aromatize (ID: Aromatize)
Add Explicit Hydrogens (ID: AddExplicitH)
Neutralize (ID: Neutralize)
Clean 2D (ID: Clean2D)


$$$$

  Mrv1812 02121911042D          

 35 35  0  0  0  0            999 V2000
    4.6577    1.2936    0.0000 C   0  0  0  0  0  0  0  0  0  0  0  0
    3.9433    0.8811    0.0000 C   0  0  0  0  0  0  0  0  0  0  0  0
    3.5308    1.5956    0.0000 C   0  0  0  0  0  0  0  0  0  0  0  0
    4.3558    0.1666    0.0000 C   0  0  0  0  0  0  0  0  0  0  0  0
    3.2288    0.4686    0.0000 O   0  0  0  0  0  0  0  0  0  0  0  0
    2.5143    0.8811    0.0000 O   0  0  0  0  0  0  0  0  0  0  0  0
    1.7998    0.4686    0.0000 C   0  0  0  0  0  0  0  0  0  0  0  0
    1.3873    1.1831    0.0000 C   0  0  0  0  0  0  0  0  0  0  0  0
    2.2123   -0.2459    0.0000 C   0  0  0  0  0  0  0  0  0  0  0  0
    1.0854    0.0561    0.0000 C   0  0  0  0  0  0  0  0  0  0  0  0
    0.3709    0.4686    0.0000 C   0  0  0  0  0  0  0  0  0  0  0  0
   -0.3436    0.0561    0.0000 C   0  0  0  0  0  0  0  0  0  0  0  0
   -0.3436   -0.7689    0.0000 C   0  0  0  0  0  0  0  0  0  0  0  0
    0.3709   -1.1814    0.0000 C   0  0  0  0  0  0  0  0  0  0  0  0
    1.0854   -0.7689    0.0000 C   0  0  0  0  0  0  0  0  0  0  0  0
    5.0702    0.5791    0.0000 H   0  0  0  0  0  0  0  0  0  0  0  0
    5.3722    1.7061    0.0000 H   0  0  0  0  0  0  0  0  0  0  0  0
    4.2452    2.0081    0.0000 H   0  0  0  0  0  0  0  0  0  0  0  0
    3.4231    2.4135    0.0000 H   0  0  0  0  0  0  0  0  0  0  0  0
    2.7339    1.8091    0.0000 H   0  0  0  0  0  0  0  0  0  0  0  0
    3.0285    0.9410    0.0000 H   0  0  0  0  0  0  0  0  0  0  0  0
    3.5378    0.0589    0.0000 H   0  0  0  0  0  0  0  0  0  0  0  0
    4.1422   -0.6303    0.0000 H   0  0  0  0  0  0  0  0  0  0  0  0
    5.0103   -0.3356    0.0000 H   0  0  0  0  0  0  0  0  0  0  0  0
    2.1018    1.5956    0.0000 H   0  0  0  0  0  0  0  0  0  0  0  0
    0.9748    1.8975    0.0000 H   0  0  0  0  0  0  0  0  0  0  0  0
    0.6729    0.7706    0.0000 H   0  0  0  0  0  0  0  0  0  0  0  0
    1.4979   -0.6584    0.0000 H   0  0  0  0  0  0  0  0  0  0  0  0
    2.6248   -0.9604    0.0000 H   0  0  0  0  0  0  0  0  0  0  0  0
    2.9268    0.1666    0.0000 H   0  0  0  0  0  0  0  0  0  0  0  0
   -0.1313    1.1231    0.0000 H   0  0  0  0  0  0  0  0  0  0  0  0
   -1.0580    0.4686    0.0000 H   0  0  0  0  0  0  0  0  0  0  0  0
   -1.0580   -1.1814    0.0000 H   0  0  0  0  0  0  0  0  0  0  0  0
    0.3709   -2.0064    0.0000 H   0  0  0  0  0  0  0  0  0  0  0  0
    1.4011   -1.5311    0.0000 H   0  0  0  0  0  0  0  0  0  0  0  0
  1  2  1  0  0  0  0
  2  3  1  0  0  0  0
  2  4  1  0  0  0  0
  2  5  1  0  0  0  0
  5  6  1  0  0  0  0
  6  7  1  0  0  0  0
  7  8  1  0  0  0  0
  7  9  1  0  0  0  0
  7 10  1  0  0  0  0
 11 10  4  0  0  0  0
 12 11  4  0  0  0  0
 13 12  4  0  0  0  0
 14 13  4  0  0  0  0
 15 14  4  0  0  0  0
 10 15  4  0  0  0  0
  1 16  1  0  0  0  0
  1 17  1  0  0  0  0
  1 18  1  0  0  0  0
  3 19  1  0  0  0  0
  3 20  1  0  0  0  0
  3 21  1  0  0  0  0
  4 22  1  0  0  0  0
  4 23  1  0  0  0  0
  4 24  1  0  0  0  0
  8 25  1  0  0  0  0
  8 26  1  0  0  0  0
  8 27  1  0  0  0  0
  9 28  1  0  0  0  0
  9 29  1  0  0  0  0
  9 30  1  0  0  0  0
 11 31  1  0  0  0  0
 12 32  1  0  0  0  0
 13 33  1  0  0  0  0
 14 34  1  0  0  0  0
 15 35  1  0  0  0  0
M  END
>  <id_input>
3813

>  <InChIKey>
BIISIZOQPWZPPS-UHFFFAOYSA-N

>  <substance_name>
[2-(tert-butylperoxy)propan-2-yl]benzene

>  <casrn>
3457-61-2

>  <Molecular weight>
208.2967071533203

>  <guideline>
OECD Guideline 404 (Acute Dermal Irritation / Corrosion)

>  <species>
rabbit

>  <type_of_coverage>
semiocclusive

>  <max_duration(hrs)>
4.0

>  <vehicle>
unchanged (no vehicle)

>  <edema/ erythema score>
1.33333333333333

>  <max_score>
4.0

>  <reversibility>
0.0

>  <Outcome>
0

>  <StandardizerResult>
Remove Explicit Hydrogens (ID: RemoveExplicitH)
Dearomatize (ID: Dearomatize)
Clear Stereo (ID: ClearStereo)
Wedge Clean (ID: WedgeClean)
Mesomerize (ID: Mesomerize)
Tautomerize (ID: Tautomerize)
Aromatize (ID: Aromatize)
Add Explicit Hydrogens (ID: AddExplicitH)
Neutralize (ID: Neutralize)
Clean 2D (ID: Clean2D)


$$$$

  Mrv1812 02121911042D          

 34 35  0  0  0  0            999 V2000
   -1.0886   -1.2965    0.0000 C   0  0  0  0  0  0  0  0  0  0  0  0
   -0.7485   -0.4857    0.0000 C   0  0  0  0  0  0  0  0  0  0  0  0
   -1.6313   -0.4703    0.0000 C   0  0  0  0  0  0  0  0  0  0  0  0
    0.1405   -0.0039    0.0000 C   0  0  0  0  0  0  0  0  0  0  0  0
    0.0850    0.9057    0.0000 C   0  0  0  0  0  0  0  0  0  0  0  0
    0.8114    1.2967    0.0000 C   0  0  0  0  0  0  0  0  0  0  0  0
    1.5133    0.8632    0.0000 C   0  0  0  0  0  0  0  0  0  0  0  0
    2.2469    1.3126    0.0000 C   0  0  0  0  0  0  0  0  0  0  0  0
    1.4888    0.0386    0.0000 C   0  0  0  0  0  0  0  0  0  0  0  0
    0.7624   -0.3525    0.0000 C   0  0  0  0  0  0  0  0  0  0  0  0
    0.6413    0.2013    0.0000 C   0  0  0  0  0  0  0  0  0  0  0  0
    0.6576    0.7511    0.0000 C   0  0  0  0  0  0  0  0  0  0  0  0
   -0.3544    0.1420    0.0000 C   0  0  0  0  0  0  0  0  0  0  0  0
   -1.0588    0.6895    0.0000 O   0  0  0  0  0  0  0  0  0  0  0  0
   -1.8494   -0.9775    0.0000 H   0  0  0  0  0  0  0  0  0  0  0  0
   -1.4076   -2.0573    0.0000 H   0  0  0  0  0  0  0  0  0  0  0  0
   -0.3277   -1.6156    0.0000 H   0  0  0  0  0  0  0  0  0  0  0  0
   -0.1368   -1.0393    0.0000 H   0  0  0  0  0  0  0  0  0  0  0  0
   -1.2306    0.2508    0.0000 H   0  0  0  0  0  0  0  0  0  0  0  0
   -2.0791    0.2226    0.0000 H   0  0  0  0  0  0  0  0  0  0  0  0
   -2.4534   -0.5394    0.0000 H   0  0  0  0  0  0  0  0  0  0  0  0
    0.1346   -0.8289    0.0000 H   0  0  0  0  0  0  0  0  0  0  0  0
   -0.2061    1.6776    0.0000 H   0  0  0  0  0  0  0  0  0  0  0  0
   -0.6785    1.2184    0.0000 H   0  0  0  0  0  0  0  0  0  0  0  0
    2.6778    0.6091    0.0000 H   0  0  0  0  0  0  0  0  0  0  0  0
    2.9504    1.7435    0.0000 H   0  0  0  0  0  0  0  0  0  0  0  0
    1.8159    2.0161    0.0000 H   0  0  0  0  0  0  0  0  0  0  0  0
    1.9214   -0.6639    0.0000 H   0  0  0  0  0  0  0  0  0  0  0  0
    2.3106   -0.0339    0.0000 H   0  0  0  0  0  0  0  0  0  0  0  0
    1.2086   -1.0464    0.0000 H   0  0  0  0  0  0  0  0  0  0  0  0
    1.2850    0.7173    0.0000 H   0  0  0  0  0  0  0  0  0  0  0  0
    0.4019   -0.0333    0.0000 H   0  0  0  0  0  0  0  0  0  0  0  0
    0.2504    1.4686    0.0000 H   0  0  0  0  0  0  0  0  0  0  0  0
   -0.5134    0.9515    0.0000 H   0  0  0  0  0  0  0  0  0  0  0  0
  1  2  1  0  0  0  0
  2  3  1  0  0  0  0
  2  4  1  0  0  0  0
  5  4  1  0  0  0  0
  6  5  1  0  0  0  0
  6  7  2  0  0  0  0
  7  8  1  0  0  0  0
  7  9  1  0  0  0  0
  9 10  1  0  0  0  0
 10 11  1  0  0  0  0
 11 12  1  0  0  0  0
 11 13  1  0  0  0  0
 13 14  2  0  0  0  0
  4 10  1  0  0  0  0
 12  6  1  0  0  0  0
  1 15  1  0  0  0  0
  1 16  1  0  0  0  0
  1 17  1  0  0  0  0
  2 18  1  0  0  0  0
  3 19  1  0  0  0  0
  3 20  1  0  0  0  0
  3 21  1  0  0  0  0
  4 22  1  0  0  0  0
  5 23  1  0  0  0  0
  5 24  1  0  0  0  0
  8 25  1  0  0  0  0
  8 26  1  0  0  0  0
  8 27  1  0  0  0  0
  9 28  1  0  0  0  0
  9 29  1  0  0  0  0
 10 30  1  0  0  0  0
 11 31  1  0  0  0  0
 12 32  1  0  0  0  0
 12 33  1  0  0  0  0
 13 34  1  0  0  0  0
M  END
>  <id_input>
1343

>  <InChIKey>
BNAYNPKNDLTBTJ-UHFFFAOYSA-N

>  <substance_name>
-

>  <casrn>
68259-31-4

>  <Molecular weight>
192.29730224609375

>  <guideline>
OECD Guideline 404 (Acute Dermal Irritation / Corrosion)

>  <species>
rabbit

>  <type_of_coverage>
semiocclusive

>  <max_duration(hrs)>
4.0

>  <vehicle>
unchanged (no vehicle)

>  <edema/ erythema score>
1.44666666666666

>  <max_score>
4.0

>  <reversibility>
0.0

>  <Outcome>
0

>  <StandardizerResult>
Remove Explicit Hydrogens (ID: RemoveExplicitH)
Clear Stereo (ID: ClearStereo)
Wedge Clean (ID: WedgeClean)
Mesomerize (ID: Mesomerize)
Tautomerize (ID: Tautomerize)
Add Explicit Hydrogens (ID: AddExplicitH)
Neutralize (ID: Neutralize)
Clean 2D (ID: Clean2D)


$$$$

  Mrv1812 02121911042D          

 56 59  0  0  0  0            999 V2000
    5.9938   -5.1578    0.0000 C   0  0  0  0  0  0  0  0  0  0  0  0
    5.2794   -4.7453    0.0000 C   0  0  0  0  0  0  0  0  0  0  0  0
    4.5649   -5.1578    0.0000 C   0  0  0  0  0  0  0  0  0  0  0  0
    3.8504   -4.7453    0.0000 C   0  0  0  0  0  0  0  0  0  0  0  0
    3.1360   -5.1578    0.0000 C   0  0  0  0  0  0  0  0  0  0  0  0
    3.1360   -5.9828    0.0000 C   0  0  0  0  0  0  0  0  0  0  0  0
    3.8504   -6.3953    0.0000 C   0  0  0  0  0  0  0  0  0  0  0  0
    4.5649   -5.9828    0.0000 C   0  0  0  0  0  0  0  0  0  0  0  0
    5.2794   -3.9203    0.0000 C   0  0  0  0  0  0  0  0  0  0  0  0
    5.9938   -3.5078    0.0000 C   0  0  0  0  0  0  0  0  0  0  0  0
    5.9938   -2.6828    0.0000 C   0  0  0  0  0  0  0  0  0  0  0  0
    5.2794   -2.2703    0.0000 C   0  0  0  0  0  0  0  0  0  0  0  0
    5.2794   -1.4453    0.0000 N   0  0  0  0  0  0  0  0  0  0  0  0
    4.5649   -1.0328    0.0000 C   0  0  0  0  0  0  0  0  0  0  0  0
    4.5649   -0.2078    0.0000 C   0  0  0  0  0  0  0  0  0  0  0  0
    3.8504    0.2047    0.0000 C   0  0  0  0  0  0  0  0  0  0  0  0
    3.1360   -0.2078    0.0000 C   0  0  0  0  0  0  0  0  0  0  0  0
    3.1360   -1.0328    0.0000 C   0  0  0  0  0  0  0  0  0  0  0  0
    3.8504   -1.4453    0.0000 C   0  0  0  0  0  0  0  0  0  0  0  0
    2.4215    0.2047    0.0000 C   0  0  0  0  0  0  0  0  0  0  0  0
    2.4215    1.0297    0.0000 C   0  0  0  0  0  0  0  0  0  0  0  0
    1.7070   -0.2078    0.0000 C   0  0  0  0  0  0  0  0  0  0  0  0
    0.9925    0.2047    0.0000 C   0  0  0  0  0  0  0  0  0  0  0  0
    0.2781   -0.2078    0.0000 C   0  0  0  0  0  0  0  0  0  0  0  0
    0.2781   -1.0328    0.0000 C   0  0  0  0  0  0  0  0  0  0  0  0
    0.9925   -1.4453    0.0000 C   0  0  0  0  0  0  0  0  0  0  0  0
    1.7070   -1.0328    0.0000 C   0  0  0  0  0  0  0  0  0  0  0  0
    4.5649   -2.6828    0.0000 C   0  0  0  0  0  0  0  0  0  0  0  0
    4.5649   -3.5078    0.0000 C   0  0  0  0  0  0  0  0  0  0  0  0
    5.5813   -5.8723    0.0000 H   0  0  0  0  0  0  0  0  0  0  0  0
    6.7083   -5.5703    0.0000 H   0  0  0  0  0  0  0  0  0  0  0  0
    6.4063   -4.4433    0.0000 H   0  0  0  0  0  0  0  0  0  0  0  0
    5.2794   -5.5703    0.0000 H   0  0  0  0  0  0  0  0  0  0  0  0
    3.8504   -3.9203    0.0000 H   0  0  0  0  0  0  0  0  0  0  0  0
    2.4215   -4.7453    0.0000 H   0  0  0  0  0  0  0  0  0  0  0  0
    2.4215   -6.3953    0.0000 H   0  0  0  0  0  0  0  0  0  0  0  0
    3.8504   -7.2203    0.0000 H   0  0  0  0  0  0  0  0  0  0  0  0
    4.9774   -6.6973    0.0000 H   0  0  0  0  0  0  0  0  0  0  0  0
    6.7083   -3.9203    0.0000 H   0  0  0  0  0  0  0  0  0  0  0  0
    6.7083   -2.2703    0.0000 H   0  0  0  0  0  0  0  0  0  0  0  0
    5.9938   -1.0328    0.0000 H   0  0  0  0  0  0  0  0  0  0  0  0
    5.2794    0.2047    0.0000 H   0  0  0  0  0  0  0  0  0  0  0  0
    3.8504    1.0297    0.0000 H   0  0  0  0  0  0  0  0  0  0  0  0
    2.4215   -1.4453    0.0000 H   0  0  0  0  0  0  0  0  0  0  0  0
    3.8504   -2.2703    0.0000 H   0  0  0  0  0  0  0  0  0  0  0  0
    3.1360    0.6172    0.0000 H   0  0  0  0  0  0  0  0  0  0  0  0
    3.0048    1.6131    0.0000 H   0  0  0  0  0  0  0  0  0  0  0  0
    2.0090    1.7442    0.0000 H   0  0  0  0  0  0  0  0  0  0  0  0
    1.6246    0.8162    0.0000 H   0  0  0  0  0  0  0  0  0  0  0  0
    0.4957    0.8634    0.0000 H   0  0  0  0  0  0  0  0  0  0  0  0
   -0.4364    0.2047    0.0000 H   0  0  0  0  0  0  0  0  0  0  0  0
   -0.4364   -1.4453    0.0000 H   0  0  0  0  0  0  0  0  0  0  0  0
    0.9925   -2.2703    0.0000 H   0  0  0  0  0  0  0  0  0  0  0  0
    1.7070   -1.8578    0.0000 H   0  0  0  0  0  0  0  0  0  0  0  0
    4.5649   -1.8578    0.0000 H   0  0  0  0  0  0  0  0  0  0  0  0
    3.8504   -3.0953    0.0000 H   0  0  0  0  0  0  0  0  0  0  0  0
  1  2  1  0  0  0  0
  2  3  1  0  0  0  0
  4  3  4  0  0  0  0
  5  4  4  0  0  0  0
  6  5  4  0  0  0  0
  7  6  4  0  0  0  0
  8  7  4  0  0  0  0
  2  9  1  0  0  0  0
 10  9  4  0  0  0  0
 11 10  4  0  0  0  0
 12 11  4  0  0  0  0
 12 13  1  0  0  0  0
 13 14  1  0  0  0  0
 15 14  4  0  0  0  0
 16 15  4  0  0  0  0
 17 16  4  0  0  0  0
 18 17  4  0  0  0  0
 19 18  4  0  0  0  0
 17 20  1  0  0  0  0
 20 21  1  0  0  0  0
 20 22  1  0  0  0  0
 23 22  4  0  0  0  0
 24 23  4  0  0  0  0
 25 24  4  0  0  0  0
 26 25  4  0  0  0  0
 27 26  4  0  0  0  0
 28 12  4  0  0  0  0
 29 28  4  0  0  0  0
  3  8  4  0  0  0  0
  9 29  4  0  0  0  0
 14 19  4  0  0  0  0
 22 27  4  0  0  0  0
  1 30  1  0  0  0  0
  1 31  1  0  0  0  0
  1 32  1  0  0  0  0
  2 33  1  0  0  0  0
  4 34  1  0  0  0  0
  5 35  1  0  0  0  0
  6 36  1  0  0  0  0
  7 37  1  0  0  0  0
  8 38  1  0  0  0  0
 10 39  1  0  0  0  0
 11 40  1  0  0  0  0
 13 41  1  0  0  0  0
 15 42  1  0  0  0  0
 16 43  1  0  0  0  0
 18 44  1  0  0  0  0
 19 45  1  0  0  0  0
 20 46  1  0  0  0  0
 21 47  1  0  0  0  0
 21 48  1  0  0  0  0
 21 49  1  0  0  0  0
 23 50  1  0  0  0  0
 24 51  1  0  0  0  0
 25 52  1  0  0  0  0
 26 53  1  0  0  0  0
 27 54  1  0  0  0  0
 28 55  1  0  0  0  0
 29 56  1  0  0  0  0
M  END
>  <id_input>
3173

>  <InChIKey>
BRWSDEFCJGIRLV-UHFFFAOYSA-N

>  <substance_name>
Benzenamine, N-phenyl-, styrenated

>  <casrn>
68442-68-2

>  <Molecular weight>
377.52069091796875

>  <species>
rabbit

>  <type_of_coverage>
semiocclusive

>  <max_duration(hrs)>
24.0

>  <vehicle>
unchanged (no vehicle)

>  <edema/ erythema score>
0.5

>  <max_score>
1.0

>  <reversibility>
0.0

>  <Outcome>
0

>  <StandardizerResult>
Remove Explicit Hydrogens (ID: RemoveExplicitH)
Dearomatize (ID: Dearomatize)
Clear Stereo (ID: ClearStereo)
Wedge Clean (ID: WedgeClean)
Mesomerize (ID: Mesomerize)
Tautomerize (ID: Tautomerize)
Aromatize (ID: Aromatize)
Add Explicit Hydrogens (ID: AddExplicitH)
Neutralize (ID: Neutralize)
Clean 2D (ID: Clean2D)


$$$$

  Mrv1812 02121911042D          

 18 18  0  0  0  0            999 V2000
    0.7145    0.4125    0.0000 C   0  0  0  0  0  0  0  0  0  0  0  0
   -0.0000    0.8250    0.0000 C   0  0  0  0  0  0  0  0  0  0  0  0
   -0.7145    0.4125    0.0000 C   0  0  0  0  0  0  0  0  0  0  0  0
   -0.7145   -0.4125    0.0000 C   0  0  0  0  0  0  0  0  0  0  0  0
   -0.0000   -0.8250    0.0000 C   0  0  0  0  0  0  0  0  0  0  0  0
    0.7145   -0.4125    0.0000 C   0  0  0  0  0  0  0  0  0  0  0  0
    1.4289   -0.8250    0.0000 I   0  0  0  0  0  0  0  0  0  0  0  0
   -0.0000   -1.6500    0.0000 N   0  0  0  0  0  0  0  0  0  0  0  0
   -1.4289   -0.8250    0.0000 I   0  0  0  0  0  0  0  0  0  0  0  0
   -1.4289    0.8250    0.0000 C   0  0  0  0  0  0  0  0  0  0  0  0
   -2.1434    0.4125    0.0000 O   0  0  0  0  0  0  0  0  0  0  0  0
   -1.4289    1.6500    0.0000 Cl  0  0  0  0  0  0  0  0  0  0  0  0
    0.0000    1.6500    0.0000 I   0  0  0  0  0  0  0  0  0  0  0  0
    1.4289    0.8250    0.0000 C   0  0  0  0  0  0  0  0  0  0  0  0
    2.1434    0.4125    0.0000 O   0  0  0  0  0  0  0  0  0  0  0  0
    1.4289    1.6500    0.0000 Cl  0  0  0  0  0  0  0  0  0  0  0  0
   -0.7145   -2.0625    0.0000 H   0  0  0  0  0  0  0  0  0  0  0  0
    0.7145   -2.0625    0.0000 H   0  0  0  0  0  0  0  0  0  0  0  0
  2  1  4  0  0  0  0
  3  2  4  0  0  0  0
  4  3  4  0  0  0  0
  5  4  4  0  0  0  0
  6  5  4  0  0  0  0
  6  7  1  0  0  0  0
  5  8  1  0  0  0  0
  4  9  1  0  0  0  0
  3 10  1  0  0  0  0
 10 11  2  0  0  0  0
 10 12  1  0  0  0  0
  2 13  1  0  0  0  0
  1 14  1  0  0  0  0
 14 15  2  0  0  0  0
 14 16  1  0  0  0  0
  1  6  4  0  0  0  0
  8 17  1  0  0  0  0
  8 18  1  0  0  0  0
M  END
>  <id_input>
2958

>  <InChIKey>
FBJVWRITWDYUAC-UHFFFAOYSA-N

>  <substance_name>
5-amino-2,4,6-triiodobenzene-1,3-dicarbonyl dichloride

>  <casrn>
37441-29-5

>  <Molecular weight>
595.7263793945312

>  <guideline>
OECD Guideline 404 (Acute Dermal Irritation / Corrosion)

>  <species>
rabbit

>  <type_of_coverage>
semiocclusive

>  <max_duration(hrs)>
4.0

>  <vehicle>
water

>  <edema/ erythema score>
0.0

>  <max_score>
1.0

>  <reversibility>
0.0

>  <Outcome>
0

>  <StandardizerResult>
Remove Explicit Hydrogens (ID: RemoveExplicitH)
Dearomatize (ID: Dearomatize)
Clear Stereo (ID: ClearStereo)
Wedge Clean (ID: WedgeClean)
Mesomerize (ID: Mesomerize)
Tautomerize (ID: Tautomerize)
Aromatize (ID: Aromatize)
Add Explicit Hydrogens (ID: AddExplicitH)
Neutralize (ID: Neutralize)
Clean 2D (ID: Clean2D)


$$$$

  Mrv1812 02121911042D          

 34 34  0  0  0  0            999 V2000
    3.0378   -0.4260    0.0000 C   0  0  0  0  0  0  0  0  0  0  0  0
    2.3234   -0.8385    0.0000 C   0  0  0  0  0  0  0  0  0  0  0  0
    1.6089   -0.4260    0.0000 C   0  0  0  0  0  0  0  0  0  0  0  0
    0.8944   -0.8385    0.0000 C   0  0  0  0  0  0  0  0  0  0  0  0
    0.1800   -0.4260    0.0000 C   0  0  0  0  0  0  0  0  0  0  0  0
   -0.5345   -0.8385    0.0000 C   0  0  0  0  0  0  0  0  0  0  0  0
   -0.5345   -1.6635    0.0000 C   0  0  0  0  0  0  0  0  0  0  0  0
    0.1800   -2.0760    0.0000 C   0  0  0  0  0  0  0  0  0  0  0  0
    0.8944   -1.6635    0.0000 O   0  0  0  0  0  0  0  0  0  0  0  0
   -0.9717   -0.1388    0.0000 C   0  0  0  0  0  0  0  0  0  0  0  0
   -1.3590   -0.8097    0.0000 O   0  0  0  0  0  0  0  0  0  0  0  0
   -1.7463   -0.0813    0.0000 C   0  0  0  0  0  0  0  0  0  0  0  0
   -2.5708   -0.0525    0.0000 O   0  0  0  0  0  0  0  0  0  0  0  0
   -1.3091    0.6184    0.0000 C   0  0  0  0  0  0  0  0  0  0  0  0
    3.4503   -1.1404    0.0000 H   0  0  0  0  0  0  0  0  0  0  0  0
    3.7523   -0.0135    0.0000 H   0  0  0  0  0  0  0  0  0  0  0  0
    2.6253    0.2885    0.0000 H   0  0  0  0  0  0  0  0  0  0  0  0
    1.9531   -1.5757    0.0000 H   0  0  0  0  0  0  0  0  0  0  0  0
    2.6936   -1.5757    0.0000 H   0  0  0  0  0  0  0  0  0  0  0  0
    1.9792    0.3113    0.0000 H   0  0  0  0  0  0  0  0  0  0  0  0
    1.2386    0.3113    0.0000 H   0  0  0  0  0  0  0  0  0  0  0  0
    0.8944   -0.0135    0.0000 H   0  0  0  0  0  0  0  0  0  0  0  0
    0.0367    0.3865    0.0000 H   0  0  0  0  0  0  0  0  0  0  0  0
   -0.4520    0.1043    0.0000 H   0  0  0  0  0  0  0  0  0  0  0  0
   -1.3581   -1.7114    0.0000 H   0  0  0  0  0  0  0  0  0  0  0  0
   -0.9879   -2.3528    0.0000 H   0  0  0  0  0  0  0  0  0  0  0  0
   -0.1903   -2.8132    0.0000 H   0  0  0  0  0  0  0  0  0  0  0  0
    0.5502   -2.8132    0.0000 H   0  0  0  0  0  0  0  0  0  0  0  0
   -0.4952    0.5347    0.0000 H   0  0  0  0  0  0  0  0  0  0  0  0
   -0.8908    0.6822    0.0000 H   0  0  0  0  0  0  0  0  0  0  0  0
   -0.1805   -0.3726    0.0000 H   0  0  0  0  0  0  0  0  0  0  0  0
   -0.9736    1.3721    0.0000 H   0  0  0  0  0  0  0  0  0  0  0  0
   -1.7625    1.3076    0.0000 H   0  0  0  0  0  0  0  0  0  0  0  0
   -2.1341    0.6088    0.0000 H   0  0  0  0  0  0  0  0  0  0  0  0
  1  2  1  0  0  0  0
  2  3  1  0  0  0  0
  3  4  1  0  0  0  0
  5  4  1  0  0  0  0
  6  5  1  0  0  0  0
  7  6  1  0  0  0  0
  8  7  1  0  0  0  0
  9  8  1  0  0  0  0
  6 10  1  0  0  0  0
  6 11  1  0  0  0  0
 11 12  1  0  0  0  0
 12 13  2  0  0  0  0
 12 14  1  0  0  0  0
  4  9  1  0  0  0  0
  1 15  1  0  0  0  0
  1 16  1  0  0  0  0
  1 17  1  0  0  0  0
  2 18  1  0  0  0  0
  2 19  1  0  0  0  0
  3 20  1  0  0  0  0
  3 21  1  0  0  0  0
  4 22  1  0  0  0  0
  5 23  1  0  0  0  0
  5 24  1  0  0  0  0
  7 25  1  0  0  0  0
  7 26  1  0  0  0  0
  8 27  1  0  0  0  0
  8 28  1  0  0  0  0
 10 29  1  0  0  0  0
 10 30  1  0  0  0  0
 10 31  1  0  0  0  0
 14 32  1  0  0  0  0
 14 33  1  0  0  0  0
 14 34  1  0  0  0  0
M  END
>  <id_input>
126

>  <InChIKey>
GURYYNWDVKXZAT-UHFFFAOYSA-N

>  <substance_name>
(4R)-4-methyl-2-propyloxan-4-yl acetate (4S)-4-methyl-2-propyloxan-4-yl acetate

>  <casrn>
131766-73-9

>  <Molecular weight>
200.2747039794922

>  <guideline>
other: Directive 84/449/EEC, Annex V, Method B4 and OECD guideline for Toxicity Testing of Chemicals, No. 404.

>  <species>
rabbit

>  <type_of_coverage>
semiocclusive

>  <max_duration(hrs)>
4.0

>  <vehicle>
unchanged (no vehicle)

>  <edema/ erythema score>
1.175

>  <max_score>
4.0

>  <reversibility>
0.0

>  <Outcome>
0

>  <StandardizerResult>
Remove Explicit Hydrogens (ID: RemoveExplicitH)
Clear Stereo (ID: ClearStereo)
Wedge Clean (ID: WedgeClean)
Mesomerize (ID: Mesomerize)
Tautomerize (ID: Tautomerize)
Add Explicit Hydrogens (ID: AddExplicitH)
Neutralize (ID: Neutralize)
Clean 2D (ID: Clean2D)


$$$$

  Mrv1812 02121911042D          

 86 86  0  0  0  0            999 V2000
   -5.0537   -0.5064    0.0000 C   0  0  0  0  0  0  0  0  0  0  0  0
   -4.2681   -0.2544    0.0000 C   0  0  0  0  0  0  0  0  0  0  0  0
   -3.6571   -0.8087    0.0000 C   0  0  0  0  0  0  0  0  0  0  0  0
   -2.8715   -0.5568    0.0000 C   0  0  0  0  0  0  0  0  0  0  0  0
   -2.2605   -1.1111    0.0000 C   0  0  0  0  0  0  0  0  0  0  0  0
   -1.4750   -0.8591    0.0000 C   0  0  0  0  0  0  0  0  0  0  0  0
   -0.8639   -1.4135    0.0000 C   0  0  0  0  0  0  0  0  0  0  0  0
   -0.0784   -1.1615    0.0000 C   0  0  0  0  0  0  0  0  0  0  0  0
    0.5326   -1.7158    0.0000 C   0  0  0  0  0  0  0  0  0  0  0  0
    1.3182   -1.4639    0.0000 C   0  0  0  0  0  0  0  0  0  0  0  0
    1.9292   -2.0182    0.0000 C   0  0  0  0  0  0  0  0  0  0  0  0
    2.7148   -1.7662    0.0000 C   0  0  0  0  0  0  0  0  0  0  0  0
    2.8894   -0.9599    0.0000 O   0  0  0  0  0  0  0  0  0  0  0  0
    3.3258   -2.3206    0.0000 O   0  0  0  0  0  0  0  0  0  0  0  0
    4.1114   -2.0686    0.0000 C   0  0  0  0  0  0  0  0  0  0  0  0
    4.7224   -2.6229    0.0000 C   0  0  0  0  0  0  0  0  0  0  0  0
    5.5080   -2.3710    0.0000 O   0  0  0  0  0  0  0  0  0  0  0  0
    6.1190   -2.9253    0.0000 C   0  0  0  0  0  0  0  0  0  0  0  0
    6.9046   -2.6733    0.0000 C   0  0  0  0  0  0  0  0  0  0  0  0
    7.0791   -1.8670    0.0000 O   0  0  0  0  0  0  0  0  0  0  0  0
    7.8647   -1.6150    0.0000 C   0  0  0  0  0  0  0  0  0  0  0  0
    8.0393   -0.8087    0.0000 C   0  0  0  0  0  0  0  0  0  0  0  0
    8.8249   -0.5568    0.0000 O   0  0  0  0  0  0  0  0  0  0  0  0
    7.5156   -3.2277    0.0000 C   0  0  0  0  0  0  0  0  0  0  0  0
    7.4262   -4.0478    0.0000 O   0  0  0  0  0  0  0  0  0  0  0  0
    8.1786   -4.3862    0.0000 C   0  0  0  0  0  0  0  0  0  0  0  0
    8.7330   -3.7752    0.0000 C   0  0  0  0  0  0  0  0  0  0  0  0
    9.5531   -3.8646    0.0000 O   0  0  0  0  0  0  0  0  0  0  0  0
    9.8858   -4.6195    0.0000 C   0  0  0  0  0  0  0  0  0  0  0  0
    9.3984   -5.2851    0.0000 C   0  0  0  0  0  0  0  0  0  0  0  0
    9.7311   -6.0400    0.0000 O   0  0  0  0  0  0  0  0  0  0  0  0
    8.3232   -3.0592    0.0000 C   0  0  0  0  0  0  0  0  0  0  0  0
    8.6616   -2.3068    0.0000 O   0  0  0  0  0  0  0  0  0  0  0  0
    9.4824   -2.2237    0.0000 C   0  0  0  0  0  0  0  0  0  0  0  0
    9.8208   -1.4713    0.0000 C   0  0  0  0  0  0  0  0  0  0  0  0
   10.6416   -1.3881    0.0000 O   0  0  0  0  0  0  0  0  0  0  0  0
   -5.3057    0.2792    0.0000 H   0  0  0  0  0  0  0  0  0  0  0  0
   -5.8393   -0.7583    0.0000 H   0  0  0  0  0  0  0  0  0  0  0  0
   -4.8017   -1.2919    0.0000 H   0  0  0  0  0  0  0  0  0  0  0  0
   -3.7502    0.3878    0.0000 H   0  0  0  0  0  0  0  0  0  0  0  0
   -4.4740    0.5445    0.0000 H   0  0  0  0  0  0  0  0  0  0  0  0
   -4.1750   -1.4509    0.0000 H   0  0  0  0  0  0  0  0  0  0  0  0
   -3.4512   -1.6076    0.0000 H   0  0  0  0  0  0  0  0  0  0  0  0
   -2.3537    0.0855    0.0000 H   0  0  0  0  0  0  0  0  0  0  0  0
   -3.0774    0.2421    0.0000 H   0  0  0  0  0  0  0  0  0  0  0  0
   -2.7784   -1.7533    0.0000 H   0  0  0  0  0  0  0  0  0  0  0  0
   -2.0547   -1.9100    0.0000 H   0  0  0  0  0  0  0  0  0  0  0  0
   -0.9571   -0.2169    0.0000 H   0  0  0  0  0  0  0  0  0  0  0  0
   -1.6808   -0.0602    0.0000 H   0  0  0  0  0  0  0  0  0  0  0  0
   -1.3818   -2.0557    0.0000 H   0  0  0  0  0  0  0  0  0  0  0  0
   -0.6581   -2.2124    0.0000 H   0  0  0  0  0  0  0  0  0  0  0  0
    0.4395   -0.5193    0.0000 H   0  0  0  0  0  0  0  0  0  0  0  0
   -0.2842   -0.3626    0.0000 H   0  0  0  0  0  0  0  0  0  0  0  0
    0.0148   -2.3580    0.0000 H   0  0  0  0  0  0  0  0  0  0  0  0
    0.7385   -2.5147    0.0000 H   0  0  0  0  0  0  0  0  0  0  0  0
    1.8361   -0.8217    0.0000 H   0  0  0  0  0  0  0  0  0  0  0  0
    1.1123   -0.6650    0.0000 H   0  0  0  0  0  0  0  0  0  0  0  0
    1.4113   -2.6604    0.0000 H   0  0  0  0  0  0  0  0  0  0  0  0
    2.1351   -2.8171    0.0000 H   0  0  0  0  0  0  0  0  0  0  0  0
    4.6293   -1.4264    0.0000 H   0  0  0  0  0  0  0  0  0  0  0  0
    3.9055   -1.2697    0.0000 H   0  0  0  0  0  0  0  0  0  0  0  0
    4.2045   -3.2651    0.0000 H   0  0  0  0  0  0  0  0  0  0  0  0
    4.9283   -3.4218    0.0000 H   0  0  0  0  0  0  0  0  0  0  0  0
    5.6011   -3.5675    0.0000 H   0  0  0  0  0  0  0  0  0  0  0  0
    6.3248   -3.7242    0.0000 H   0  0  0  0  0  0  0  0  0  0  0  0
    6.2935   -2.1190    0.0000 H   0  0  0  0  0  0  0  0  0  0  0  0
    8.1619   -2.3846    0.0000 H   0  0  0  0  0  0  0  0  0  0  0  0
    8.6595   -1.8362    0.0000 H   0  0  0  0  0  0  0  0  0  0  0  0
    7.7421   -0.0391    0.0000 H   0  0  0  0  0  0  0  0  0  0  0  0
    7.2445   -0.5876    0.0000 H   0  0  0  0  0  0  0  0  0  0  0  0
    9.4359   -1.1111    0.0000 H   0  0  0  0  0  0  0  0  0  0  0  0
    6.7442   -3.5204    0.0000 H   0  0  0  0  0  0  0  0  0  0  0  0
    7.9482   -5.1784    0.0000 H   0  0  0  0  0  0  0  0  0  0  0  0
    8.7065   -5.0202    0.0000 H   0  0  0  0  0  0  0  0  0  0  0  0
    9.0257   -4.5465    0.0000 H   0  0  0  0  0  0  0  0  0  0  0  0
   10.5787   -5.0674    0.0000 H   0  0  0  0  0  0  0  0  0  0  0  0
   10.6588   -4.3312    0.0000 H   0  0  0  0  0  0  0  0  0  0  0  0
    8.8296   -5.8827    0.0000 H   0  0  0  0  0  0  0  0  0  0  0  0
   10.2185   -5.3744    0.0000 H   0  0  0  0  0  0  0  0  0  0  0  0
   10.0394   -6.8053    0.0000 H   0  0  0  0  0  0  0  0  0  0  0  0
    9.1472   -3.0191    0.0000 H   0  0  0  0  0  0  0  0  0  0  0  0
    9.9754   -2.8852    0.0000 H   0  0  0  0  0  0  0  0  0  0  0  0
   10.3025   -2.1340    0.0000 H   0  0  0  0  0  0  0  0  0  0  0  0
   10.0847   -0.6896    0.0000 H   0  0  0  0  0  0  0  0  0  0  0  0
    9.0119   -1.6335    0.0000 H   0  0  0  0  0  0  0  0  0  0  0  0
   11.4603   -1.2868    0.0000 H   0  0  0  0  0  0  0  0  0  0  0  0
  1  2  1  0  0  0  0
  2  3  1  0  0  0  0
  3  4  1  0  0  0  0
  4  5  1  0  0  0  0
  5  6  1  0  0  0  0
  6  7  1  0  0  0  0
  7  8  1  0  0  0  0
  8  9  1  0  0  0  0
  9 10  1  0  0  0  0
 10 11  1  0  0  0  0
 11 12  1  0  0  0  0
 12 13  2  0  0  0  0
 12 14  1  0  0  0  0
 14 15  1  0  0  0  0
 15 16  1  0  0  0  0
 16 17  1  0  0  0  0
 17 18  1  0  0  0  0
 18 19  1  0  0  0  0
 19 20  1  0  0  0  0
 20 21  1  0  0  0  0
 21 22  1  0  0  0  0
 22 23  1  0  0  0  0
 19 24  1  0  0  0  0
 25 24  1  0  0  0  0
 26 25  1  0  0  0  0
 27 26  1  0  0  0  0
 27 28  1  0  0  0  0
 28 29  1  0  0  0  0
 29 30  1  0  0  0  0
 30 31  1  0  0  0  0
 32 27  1  0  0  0  0
 32 33  1  0  0  0  0
 33 34  1  0  0  0  0
 34 35  1  0  0  0  0
 35 36  1  0  0  0  0
 24 32  1  0  0  0  0
  1 37  1  0  0  0  0
  1 38  1  0  0  0  0
  1 39  1  0  0  0  0
  2 40  1  0  0  0  0
  2 41  1  0  0  0  0
  3 42  1  0  0  0  0
  3 43  1  0  0  0  0
  4 44  1  0  0  0  0
  4 45  1  0  0  0  0
  5 46  1  0  0  0  0
  5 47  1  0  0  0  0
  6 48  1  0  0  0  0
  6 49  1  0  0  0  0
  7 50  1  0  0  0  0
  7 51  1  0  0  0  0
  8 52  1  0  0  0  0
  8 53  1  0  0  0  0
  9 54  1  0  0  0  0
  9 55  1  0  0  0  0
 10 56  1  0  0  0  0
 10 57  1  0  0  0  0
 11 58  1  0  0  0  0
 11 59  1  0  0  0  0
 15 60  1  0  0  0  0
 15 61  1  0  0  0  0
 16 62  1  0  0  0  0
 16 63  1  0  0  0  0
 18 64  1  0  0  0  0
 18 65  1  0  0  0  0
 19 66  1  0  0  0  0
 21 67  1  0  0  0  0
 21 68  1  0  0  0  0
 22 69  1  0  0  0  0
 22 70  1  0  0  0  0
 23 71  1  0  0  0  0
 24 72  1  0  0  0  0
 26 73  1  0  0  0  0
 26 74  1  0  0  0  0
 27 75  1  0  0  0  0
 29 76  1  0  0  0  0
 29 77  1  0  0  0  0
 30 78  1  0  0  0  0
 30 79  1  0  0  0  0
 31 80  1  0  0  0  0
 32 81  1  0  0  0  0
 34 82  1  0  0  0  0
 34 83  1  0  0  0  0
 35 84  1  0  0  0  0
 35 85  1  0  0  0  0
 36 86  1  0  0  0  0
M  END
>  <id_input>
3766

>  <InChIKey>
HMFKFHLTUCJZJO-UHFFFAOYSA-N

>  <substance_name>
Sorbitan monolaurate, ethoxylated

>  <casrn>
9005-64-5

>  <Molecular weight>
522.669189453125

>  <guideline>
OECD Guideline 404 (Acute Dermal Irritation / Corrosion)

>  <species>
rabbit

>  <type_of_coverage>
semiocclusive

>  <max_duration(hrs)>
4.0

>  <vehicle>
unchanged (no vehicle)

>  <edema/ erythema score>
0.89

>  <max_score>
4.0

>  <reversibility>
0.0

>  <Outcome>
0

>  <StandardizerResult>
Remove Explicit Hydrogens (ID: RemoveExplicitH)
Clear Stereo (ID: ClearStereo)
Wedge Clean (ID: WedgeClean)
Mesomerize (ID: Mesomerize)
Tautomerize (ID: Tautomerize)
Add Explicit Hydrogens (ID: AddExplicitH)
Neutralize (ID: Neutralize)
Clean 2D (ID: Clean2D)


$$$$

  Mrv1812 02121911042D          

 43 43  0  0  0  0            999 V2000
   -0.9225   -1.3146    0.0000 O   0  0  0  0  0  0  0  0  0  0  0  0
   -0.1379   -1.0597    0.0000 C   0  0  0  0  0  0  0  0  0  0  0  0
    0.4752   -1.6117    0.0000 O   0  0  0  0  0  0  0  0  0  0  0  0
    0.3036   -2.4187    0.0000 C   0  0  0  0  0  0  0  0  0  0  0  0
    0.0336   -0.2527    0.0000 C   0  0  0  0  0  0  0  0  0  0  0  0
   -0.5795    0.2993    0.0000 C   0  0  0  0  0  0  0  0  0  0  0  0
   -0.4933    1.1198    0.0000 C   0  0  0  0  0  0  0  0  0  0  0  0
   -1.2469    1.4554    0.0000 C   0  0  0  0  0  0  0  0  0  0  0  0
   -1.4185    2.2623    0.0000 O   0  0  0  0  0  0  0  0  0  0  0  0
   -2.2031    2.5173    0.0000 C   0  0  0  0  0  0  0  0  0  0  0  0
   -2.8162    1.9652    0.0000 O   0  0  0  0  0  0  0  0  0  0  0  0
   -2.3746    3.3243    0.0000 C   0  0  0  0  0  0  0  0  0  0  0  0
   -1.7990    0.8423    0.0000 C   0  0  0  0  0  0  0  0  0  0  0  0
   -1.3865    0.1278    0.0000 C   0  0  0  0  0  0  0  0  0  0  0  0
    0.2212    1.5323    0.0000 C   0  0  0  0  0  0  0  0  0  0  0  0
    0.9357    1.1198    0.0000 C   0  0  0  0  0  0  0  0  0  0  0  0
    1.6502    1.5323    0.0000 C   0  0  0  0  0  0  0  0  0  0  0  0
    2.3646    1.1198    0.0000 C   0  0  0  0  0  0  0  0  0  0  0  0
    3.0791    1.5323    0.0000 C   0  0  0  0  0  0  0  0  0  0  0  0
   -0.5033   -2.2471    0.0000 H   0  0  0  0  0  0  0  0  0  0  0  0
    0.1321   -3.2256    0.0000 H   0  0  0  0  0  0  0  0  0  0  0  0
    1.1106   -2.5902    0.0000 H   0  0  0  0  0  0  0  0  0  0  0  0
    0.8492   -0.3770    0.0000 H   0  0  0  0  0  0  0  0  0  0  0  0
    0.6203    0.3273    0.0000 H   0  0  0  0  0  0  0  0  0  0  0  0
    0.1907    0.5950    0.0000 H   0  0  0  0  0  0  0  0  0  0  0  0
   -1.5676    3.4958    0.0000 H   0  0  0  0  0  0  0  0  0  0  0  0
   -2.5461    4.1312    0.0000 H   0  0  0  0  0  0  0  0  0  0  0  0
   -3.1816    3.1527    0.0000 H   0  0  0  0  0  0  0  0  0  0  0  0
   -2.4829    1.3036    0.0000 H   0  0  0  0  0  0  0  0  0  0  0  0
   -2.5639    0.5332    0.0000 H   0  0  0  0  0  0  0  0  0  0  0  0
   -2.0366   -0.3801    0.0000 H   0  0  0  0  0  0  0  0  0  0  0  0
   -1.3289   -0.6952    0.0000 H   0  0  0  0  0  0  0  0  0  0  0  0
    0.5915    2.2696    0.0000 H   0  0  0  0  0  0  0  0  0  0  0  0
   -0.1490    2.2696    0.0000 H   0  0  0  0  0  0  0  0  0  0  0  0
    1.5598    0.5802    0.0000 H   0  0  0  0  0  0  0  0  0  0  0  0
    0.9357    1.9448    0.0000 H   0  0  0  0  0  0  0  0  0  0  0  0
    2.2821    2.0626    0.0000 H   0  0  0  0  0  0  0  0  0  0  0  0
    1.7934    2.3448    0.0000 H   0  0  0  0  0  0  0  0  0  0  0  0
    2.4015    0.2956    0.0000 H   0  0  0  0  0  0  0  0  0  0  0  0
    3.0881    0.7234    0.0000 H   0  0  0  0  0  0  0  0  0  0  0  0
    3.7905    1.1145    0.0000 H   0  0  0  0  0  0  0  0  0  0  0  0
    3.8041    1.9260    0.0000 H   0  0  0  0  0  0  0  0  0  0  0  0
    3.1161    2.3565    0.0000 H   0  0  0  0  0  0  0  0  0  0  0  0
  1  2  2  0  0  0  0
  2  3  1  0  0  0  0
  3  4  1  0  0  0  0
  2  5  1  0  0  0  0
  5  6  1  0  0  0  0
  7  6  1  0  0  0  0
  8  7  2  0  0  0  0
  8  9  1  0  0  0  0
  9 10  1  0  0  0  0
 10 11  2  0  0  0  0
 10 12  1  0  0  0  0
 13  8  1  0  0  0  0
 14 13  1  0  0  0  0
  7 15  1  0  0  0  0
 15 16  1  0  0  0  0
 16 17  1  0  0  0  0
 17 18  1  0  0  0  0
 18 19  1  0  0  0  0
  6 14  1  0  0  0  0
  4 20  1  0  0  0  0
  4 21  1  0  0  0  0
  4 22  1  0  0  0  0
  5 23  1  0  0  0  0
  5 24  1  0  0  0  0
  6 25  1  0  0  0  0
 12 26  1  0  0  0  0
 12 27  1  0  0  0  0
 12 28  1  0  0  0  0
 13 29  1  0  0  0  0
 13 30  1  0  0  0  0
 14 31  1  0  0  0  0
 14 32  1  0  0  0  0
 15 33  1  0  0  0  0
 15 34  1  0  0  0  0
 16 35  1  0  0  0  0
 16 36  1  0  0  0  0
 17 37  1  0  0  0  0
 17 38  1  0  0  0  0
 18 39  1  0  0  0  0
 18 40  1  0  0  0  0
 19 41  1  0  0  0  0
 19 42  1  0  0  0  0
 19 43  1  0  0  0  0
M  END
>  <id_input>
4539

>  <InChIKey>
IVEVYZAZHQVESM-UHFFFAOYSA-N

>  <substance_name>
methyl 2-[3-(acetyloxy)-2-pentylcyclopent-2-en-1-yl]acetate

>  <casrn>
57374-49-9

>  <Molecular weight>
268.3486633300781

>  <guideline>
other: EEC Directive 92/69, Annex V - Method B4 and OECD No. 404

>  <species>
rabbit

>  <type_of_coverage>
semiocclusive

>  <max_duration(hrs)>
4.0

>  <vehicle>
other: The test substance was applied undiluted.

>  <edema/ erythema score>
1.33333333333333

>  <reversibility>
0.0

>  <Outcome>
0

>  <StandardizerResult>
Remove Explicit Hydrogens (ID: RemoveExplicitH)
Clear Stereo (ID: ClearStereo)
Wedge Clean (ID: WedgeClean)
Mesomerize (ID: Mesomerize)
Tautomerize (ID: Tautomerize)
Add Explicit Hydrogens (ID: AddExplicitH)
Neutralize (ID: Neutralize)
Clean 2D (ID: Clean2D)


$$$$

  Mrv1812 02121911042D          

 57 56  0  0  0  0            999 V2000
   -2.1726    0.2287    0.0000 S   0  0  0  0  0  0  0  0  0  0  0  0
   -1.3476    0.2287    0.0000 C   0  0  0  0  0  0  0  0  0  0  0  0
   -0.9351   -0.4857    0.0000 C   0  0  0  0  0  0  0  0  0  0  0  0
   -0.1101   -0.4857    0.0000 C   0  0  0  0  0  0  0  0  0  0  0  0
    0.3024    0.2287    0.0000 O   0  0  0  0  0  0  0  0  0  0  0  0
    0.3024   -1.2002    0.0000 O   0  0  0  0  0  0  0  0  0  0  0  0
    1.1274   -1.2002    0.0000 C   0  0  0  0  0  0  0  0  0  0  0  0
    1.5399   -1.9147    0.0000 C   0  0  0  0  0  0  0  0  0  0  0  0
    1.9524   -2.6291    0.0000 C   0  0  0  0  0  0  0  0  0  0  0  0
    1.5399   -3.3436    0.0000 O   0  0  0  0  0  0  0  0  0  0  0  0
    1.9524   -4.0581    0.0000 C   0  0  0  0  0  0  0  0  0  0  0  0
    1.5399   -4.7725    0.0000 O   0  0  0  0  0  0  0  0  0  0  0  0
    2.7774   -4.0581    0.0000 C   0  0  0  0  0  0  0  0  0  0  0  0
    3.1899   -4.7725    0.0000 C   0  0  0  0  0  0  0  0  0  0  0  0
    4.0149   -4.7725    0.0000 S   0  0  0  0  0  0  0  0  0  0  0  0
    0.8254   -2.3272    0.0000 C   0  0  0  0  0  0  0  0  0  0  0  0
    0.8254   -3.1522    0.0000 O   0  0  0  0  0  0  0  0  0  0  0  0
    0.1110   -3.5647    0.0000 C   0  0  0  0  0  0  0  0  0  0  0  0
   -0.6035   -3.1522    0.0000 O   0  0  0  0  0  0  0  0  0  0  0  0
    0.1110   -4.3897    0.0000 C   0  0  0  0  0  0  0  0  0  0  0  0
    0.8254   -4.8022    0.0000 C   0  0  0  0  0  0  0  0  0  0  0  0
    0.8254   -5.6272    0.0000 S   0  0  0  0  0  0  0  0  0  0  0  0
    2.2544   -1.5022    0.0000 C   0  0  0  0  0  0  0  0  0  0  0  0
    2.9688   -1.9147    0.0000 O   0  0  0  0  0  0  0  0  0  0  0  0
    2.9688   -2.7397    0.0000 C   0  0  0  0  0  0  0  0  0  0  0  0
    2.2544   -3.1522    0.0000 O   0  0  0  0  0  0  0  0  0  0  0  0
    3.6833   -3.1522    0.0000 C   0  0  0  0  0  0  0  0  0  0  0  0
    4.3978   -2.7397    0.0000 C   0  0  0  0  0  0  0  0  0  0  0  0
    5.1122   -3.1522    0.0000 S   0  0  0  0  0  0  0  0  0  0  0  0
   -2.5851    0.9432    0.0000 H   0  0  0  0  0  0  0  0  0  0  0  0
   -0.6583    0.6821    0.0000 H   0  0  0  0  0  0  0  0  0  0  0  0
   -1.2996    1.0524    0.0000 H   0  0  0  0  0  0  0  0  0  0  0  0
   -1.6244   -0.9391    0.0000 H   0  0  0  0  0  0  0  0  0  0  0  0
   -0.9831   -1.3093    0.0000 H   0  0  0  0  0  0  0  0  0  0  0  0
    1.8167   -0.7468    0.0000 H   0  0  0  0  0  0  0  0  0  0  0  0
    1.1754   -0.3766    0.0000 H   0  0  0  0  0  0  0  0  0  0  0  0
    2.7649   -2.4859    0.0000 H   0  0  0  0  0  0  0  0  0  0  0  0
    2.4827   -1.9971    0.0000 H   0  0  0  0  0  0  0  0  0  0  0  0
    3.4667   -3.6047    0.0000 H   0  0  0  0  0  0  0  0  0  0  0  0
    2.8254   -3.2345    0.0000 H   0  0  0  0  0  0  0  0  0  0  0  0
    2.5006   -5.2259    0.0000 H   0  0  0  0  0  0  0  0  0  0  0  0
    3.1419   -5.5962    0.0000 H   0  0  0  0  0  0  0  0  0  0  0  0
    4.4274   -5.4870    0.0000 H   0  0  0  0  0  0  0  0  0  0  0  0
    0.3721   -1.6379    0.0000 H   0  0  0  0  0  0  0  0  0  0  0  0
    0.0018   -2.2792    0.0000 H   0  0  0  0  0  0  0  0  0  0  0  0
   -0.7127   -4.4376    0.0000 H   0  0  0  0  0  0  0  0  0  0  0  0
   -0.3424   -5.0789    0.0000 H   0  0  0  0  0  0  0  0  0  0  0  0
    1.0224   -4.0010    0.0000 H   0  0  0  0  0  0  0  0  0  0  0  0
    0.1110   -5.2147    0.0000 H   0  0  0  0  0  0  0  0  0  0  0  0
    1.2379   -6.3416    0.0000 H   0  0  0  0  0  0  0  0  0  0  0  0
    3.0295   -1.2196    0.0000 H   0  0  0  0  0  0  0  0  0  0  0  0
    2.5357   -0.7266    0.0000 H   0  0  0  0  0  0  0  0  0  0  0  0
    4.2887   -3.7126    0.0000 H   0  0  0  0  0  0  0  0  0  0  0  0
    3.6833   -2.3272    0.0000 H   0  0  0  0  0  0  0  0  0  0  0  0
    5.0298   -2.2094    0.0000 H   0  0  0  0  0  0  0  0  0  0  0  0
    4.5410   -1.9272    0.0000 H   0  0  0  0  0  0  0  0  0  0  0  0
    5.5555   -3.8480    0.0000 H   0  0  0  0  0  0  0  0  0  0  0  0
  1  2  1  0  0  0  0
  2  3  1  0  0  0  0
  3  4  1  0  0  0  0
  4  5  2  0  0  0  0
  4  6  1  0  0  0  0
  6  7  1  0  0  0  0
  7  8  1  0  0  0  0
  8  9  1  0  0  0  0
  9 10  1  0  0  0  0
 10 11  1  0  0  0  0
 11 12  2  0  0  0  0
 11 13  1  0  0  0  0
 13 14  1  0  0  0  0
 14 15  1  0  0  0  0
  8 16  1  0  0  0  0
 16 17  1  0  0  0  0
 17 18  1  0  0  0  0
 18 19  2  0  0  0  0
 18 20  1  0  0  0  0
 20 21  1  0  0  0  0
 21 22  1  0  0  0  0
  8 23  1  0  0  0  0
 23 24  1  0  0  0  0
 24 25  1  0  0  0  0
 25 26  2  0  0  0  0
 25 27  1  0  0  0  0
 27 28  1  0  0  0  0
 28 29  1  0  0  0  0
  1 30  1  0  0  0  0
  2 31  1  0  0  0  0
  2 32  1  0  0  0  0
  3 33  1  0  0  0  0
  3 34  1  0  0  0  0
  7 35  1  0  0  0  0
  7 36  1  0  0  0  0
  9 37  1  0  0  0  0
  9 38  1  0  0  0  0
 13 39  1  0  0  0  0
 13 40  1  0  0  0  0
 14 41  1  0  0  0  0
 14 42  1  0  0  0  0
 15 43  1  0  0  0  0
 16 44  1  0  0  0  0
 16 45  1  0  0  0  0
 20 46  1  0  0  0  0
 20 47  1  0  0  0  0
 21 48  1  0  0  0  0
 21 49  1  0  0  0  0
 22 50  1  0  0  0  0
 23 51  1  0  0  0  0
 23 52  1  0  0  0  0
 27 53  1  0  0  0  0
 27 54  1  0  0  0  0
 28 55  1  0  0  0  0
 28 56  1  0  0  0  0
 29 57  1  0  0  0  0
M  END
>  <id_input>
2717

>  <InChIKey>
JOBBTVPTPXRUBP-UHFFFAOYSA-N

>  <substance_name>
3-[(3-sulfanylpropanoyl)oxy]-2,2-bis({[(3-sulfanylpropanoyl)oxy]methyl})propyl 3-sulfanylpropanoate

>  <casrn>
7575-23-7

>  <Molecular weight>
488.659423828125

>  <guideline>
OECD Guideline 404 (Acute Dermal Irritation / Corrosion)

>  <species>
rabbit

>  <type_of_coverage>
semiocclusive

>  <max_duration(hrs)>
4.0

>  <vehicle>
unchanged (no vehicle)

>  <edema/ erythema score>
0.075

>  <max_score>
4.0

>  <reversibility>
0.0

>  <Outcome>
0

>  <StandardizerResult>
Remove Explicit Hydrogens (ID: RemoveExplicitH)
Clear Stereo (ID: ClearStereo)
Wedge Clean (ID: WedgeClean)
Mesomerize (ID: Mesomerize)
Tautomerize (ID: Tautomerize)
Add Explicit Hydrogens (ID: AddExplicitH)
Neutralize (ID: Neutralize)
Clean 2D (ID: Clean2D)


$$$$

  Mrv1812 02121911042D          

176176  0  0  0  0            999 V2000
   -6.1479   -7.1874    0.0000 C   0  0  0  0  0  0  0  0  0  0  0  0
   -5.3246   -7.2403    0.0000 C   0  0  0  0  0  0  0  0  0  0  0  0
   -4.8672   -6.5537    0.0000 C   0  0  0  0  0  0  0  0  0  0  0  0
   -4.0439   -6.6065    0.0000 C   0  0  0  0  0  0  0  0  0  0  0  0
   -3.5865   -5.9199    0.0000 C   0  0  0  0  0  0  0  0  0  0  0  0
   -2.7632   -5.9727    0.0000 C   0  0  0  0  0  0  0  0  0  0  0  0
   -2.3058   -5.2861    0.0000 C   0  0  0  0  0  0  0  0  0  0  0  0
   -1.4825   -5.3389    0.0000 C   0  0  0  0  0  0  0  0  0  0  0  0
   -1.0251   -4.6523    0.0000 C   0  0  0  0  0  0  0  0  0  0  0  0
   -0.2018   -4.7051    0.0000 C   0  0  0  0  0  0  0  0  0  0  0  0
    0.2556   -4.0185    0.0000 C   0  0  0  0  0  0  0  0  0  0  0  0
    1.0789   -4.0714    0.0000 C   0  0  0  0  0  0  0  0  0  0  0  0
    1.5363   -3.3848    0.0000 C   0  0  0  0  0  0  0  0  0  0  0  0
    2.3596   -3.4376    0.0000 C   0  0  0  0  0  0  0  0  0  0  0  0
    2.8170   -2.7510    0.0000 C   0  0  0  0  0  0  0  0  0  0  0  0
    3.6403   -2.8038    0.0000 C   0  0  0  0  0  0  0  0  0  0  0  0
    4.0977   -2.1172    0.0000 C   0  0  0  0  0  0  0  0  0  0  0  0
    4.9210   -2.1700    0.0000 C   0  0  0  0  0  0  0  0  0  0  0  0
    5.2869   -2.9094    0.0000 O   0  0  0  0  0  0  0  0  0  0  0  0
    5.3784   -1.4834    0.0000 O   0  0  0  0  0  0  0  0  0  0  0  0
    6.2017   -1.5362    0.0000 C   0  0  0  0  0  0  0  0  0  0  0  0
    6.6591   -0.8496    0.0000 C   0  0  0  0  0  0  0  0  0  0  0  0
    7.4824   -0.9024    0.0000 O   0  0  0  0  0  0  0  0  0  0  0  0
    7.8483   -1.6419    0.0000 C   0  0  0  0  0  0  0  0  0  0  0  0
    7.3909   -2.3284    0.0000 O   0  0  0  0  0  0  0  0  0  0  0  0
    8.6716   -1.6947    0.0000 C   0  0  0  0  0  0  0  0  0  0  0  0
    9.0375   -2.4341    0.0000 C   0  0  0  0  0  0  0  0  0  0  0  0
    9.8608   -2.4869    0.0000 C   0  0  0  0  0  0  0  0  0  0  0  0
   10.2267   -3.2263    0.0000 C   0  0  0  0  0  0  0  0  0  0  0  0
   11.0501   -3.2791    0.0000 C   0  0  0  0  0  0  0  0  0  0  0  0
   11.4160   -4.0185    0.0000 C   0  0  0  0  0  0  0  0  0  0  0  0
   12.2393   -4.0714    0.0000 C   0  0  0  0  0  0  0  0  0  0  0  0
   12.6052   -4.8108    0.0000 C   0  0  0  0  0  0  0  0  0  0  0  0
   13.4285   -4.8636    0.0000 C   0  0  0  0  0  0  0  0  0  0  0  0
   13.7944   -5.6030    0.0000 C   0  0  0  0  0  0  0  0  0  0  0  0
   13.3370   -6.2896    0.0000 C   0  0  0  0  0  0  0  0  0  0  0  0
   13.7029   -7.0290    0.0000 C   0  0  0  0  0  0  0  0  0  0  0  0
   13.2455   -7.7156    0.0000 C   0  0  0  0  0  0  0  0  0  0  0  0
   13.6115   -8.4550    0.0000 C   0  0  0  0  0  0  0  0  0  0  0  0
   13.1541   -9.1416    0.0000 C   0  0  0  0  0  0  0  0  0  0  0  0
   13.5200   -9.8810    0.0000 C   0  0  0  0  0  0  0  0  0  0  0  0
   13.0626  -10.5676    0.0000 C   0  0  0  0  0  0  0  0  0  0  0  0
    6.2932   -0.1102    0.0000 C   0  0  0  0  0  0  0  0  0  0  0  0
    6.6763    0.6204    0.0000 O   0  0  0  0  0  0  0  0  0  0  0  0
    6.0998    1.2106    0.0000 C   0  0  0  0  0  0  0  0  0  0  0  0
    5.3604    0.8447    0.0000 C   0  0  0  0  0  0  0  0  0  0  0  0
    4.6297    1.2278    0.0000 O   0  0  0  0  0  0  0  0  0  0  0  0
    5.4799    0.0284    0.0000 C   0  0  0  0  0  0  0  0  0  0  0  0
    4.8897   -0.5481    0.0000 O   0  0  0  0  0  0  0  0  0  0  0  0
    4.0954   -0.3253    0.0000 C   0  0  0  0  0  0  0  0  0  0  0  0
    3.5053   -0.9018    0.0000 O   0  0  0  0  0  0  0  0  0  0  0  0
    3.8912    0.4740    0.0000 C   0  0  0  0  0  0  0  0  0  0  0  0
    3.0969    0.6969    0.0000 C   0  0  0  0  0  0  0  0  0  0  0  0
    2.8927    1.4962    0.0000 C   0  0  0  0  0  0  0  0  0  0  0  0
    2.0984    1.7191    0.0000 C   0  0  0  0  0  0  0  0  0  0  0  0
    1.8942    2.5184    0.0000 C   0  0  0  0  0  0  0  0  0  0  0  0
    1.0998    2.7412    0.0000 C   0  0  0  0  0  0  0  0  0  0  0  0
    0.8957    3.5406    0.0000 C   0  0  0  0  0  0  0  0  0  0  0  0
    1.4858    4.1171    0.0000 C   0  0  0  0  0  0  0  0  0  0  0  0
    2.2801    3.8942    0.0000 C   0  0  0  0  0  0  0  0  0  0  0  0
    2.8703    4.4707    0.0000 C   0  0  0  0  0  0  0  0  0  0  0  0
    2.6661    5.2700    0.0000 C   0  0  0  0  0  0  0  0  0  0  0  0
    3.2563    5.8465    0.0000 C   0  0  0  0  0  0  0  0  0  0  0  0
    3.0521    6.6459    0.0000 C   0  0  0  0  0  0  0  0  0  0  0  0
    3.6422    7.2224    0.0000 C   0  0  0  0  0  0  0  0  0  0  0  0
    3.4380    8.0217    0.0000 C   0  0  0  0  0  0  0  0  0  0  0  0
    4.0282    8.5982    0.0000 C   0  0  0  0  0  0  0  0  0  0  0  0
    3.8240    9.3975    0.0000 C   0  0  0  0  0  0  0  0  0  0  0  0
   -6.0951   -6.3641    0.0000 H   0  0  0  0  0  0  0  0  0  0  0  0
   -6.9712   -7.1346    0.0000 H   0  0  0  0  0  0  0  0  0  0  0  0
   -6.2007   -8.0108    0.0000 H   0  0  0  0  0  0  0  0  0  0  0  0
   -5.3295   -8.0653    0.0000 H   0  0  0  0  0  0  0  0  0  0  0  0
   -4.6658   -7.7368    0.0000 H   0  0  0  0  0  0  0  0  0  0  0  0
   -4.8624   -5.7287    0.0000 H   0  0  0  0  0  0  0  0  0  0  0  0
   -5.5261   -6.0571    0.0000 H   0  0  0  0  0  0  0  0  0  0  0  0
   -4.0488   -7.4315    0.0000 H   0  0  0  0  0  0  0  0  0  0  0  0
   -3.3851   -7.1030    0.0000 H   0  0  0  0  0  0  0  0  0  0  0  0
   -3.5817   -5.0949    0.0000 H   0  0  0  0  0  0  0  0  0  0  0  0
   -4.2454   -5.4233    0.0000 H   0  0  0  0  0  0  0  0  0  0  0  0
   -2.7681   -6.7977    0.0000 H   0  0  0  0  0  0  0  0  0  0  0  0
   -2.1044   -6.4692    0.0000 H   0  0  0  0  0  0  0  0  0  0  0  0
   -2.3010   -4.4611    0.0000 H   0  0  0  0  0  0  0  0  0  0  0  0
   -2.9647   -4.7896    0.0000 H   0  0  0  0  0  0  0  0  0  0  0  0
   -1.4874   -6.1639    0.0000 H   0  0  0  0  0  0  0  0  0  0  0  0
   -0.8237   -5.8355    0.0000 H   0  0  0  0  0  0  0  0  0  0  0  0
   -1.3910   -3.9129    0.0000 H   0  0  0  0  0  0  0  0  0  0  0  0
    0.1641   -5.4445    0.0000 H   0  0  0  0  0  0  0  0  0  0  0  0
    0.2604   -3.1936    0.0000 H   0  0  0  0  0  0  0  0  0  0  0  0
   -0.4033   -3.5220    0.0000 H   0  0  0  0  0  0  0  0  0  0  0  0
    1.0740   -4.8963    0.0000 H   0  0  0  0  0  0  0  0  0  0  0  0
    1.7377   -4.5679    0.0000 H   0  0  0  0  0  0  0  0  0  0  0  0
    1.5411   -2.5598    0.0000 H   0  0  0  0  0  0  0  0  0  0  0  0
    0.8774   -2.8882    0.0000 H   0  0  0  0  0  0  0  0  0  0  0  0
    2.3547   -4.2626    0.0000 H   0  0  0  0  0  0  0  0  0  0  0  0
    3.0184   -3.9341    0.0000 H   0  0  0  0  0  0  0  0  0  0  0  0
    2.8218   -1.9260    0.0000 H   0  0  0  0  0  0  0  0  0  0  0  0
    2.1581   -2.2544    0.0000 H   0  0  0  0  0  0  0  0  0  0  0  0
    3.6354   -3.6288    0.0000 H   0  0  0  0  0  0  0  0  0  0  0  0
    4.2991   -3.3003    0.0000 H   0  0  0  0  0  0  0  0  0  0  0  0
    4.1025   -1.2922    0.0000 H   0  0  0  0  0  0  0  0  0  0  0  0
    3.4388   -1.6206    0.0000 H   0  0  0  0  0  0  0  0  0  0  0  0
    6.1968   -2.3612    0.0000 H   0  0  0  0  0  0  0  0  0  0  0  0
    6.8605   -2.0328    0.0000 H   0  0  0  0  0  0  0  0  0  0  0  0
    7.0250   -1.5890    0.0000 H   0  0  0  0  0  0  0  0  0  0  0  0
    9.3885   -1.2864    0.0000 H   0  0  0  0  0  0  0  0  0  0  0  0
    8.7722   -0.8758    0.0000 H   0  0  0  0  0  0  0  0  0  0  0  0
    8.3206   -2.8424    0.0000 H   0  0  0  0  0  0  0  0  0  0  0  0
    8.9369   -3.2529    0.0000 H   0  0  0  0  0  0  0  0  0  0  0  0
   10.5777   -2.0786    0.0000 H   0  0  0  0  0  0  0  0  0  0  0  0
    9.9614   -1.6681    0.0000 H   0  0  0  0  0  0  0  0  0  0  0  0
    9.5099   -3.6346    0.0000 H   0  0  0  0  0  0  0  0  0  0  0  0
   10.1262   -4.0452    0.0000 H   0  0  0  0  0  0  0  0  0  0  0  0
   11.7669   -2.8708    0.0000 H   0  0  0  0  0  0  0  0  0  0  0  0
   11.1507   -2.4603    0.0000 H   0  0  0  0  0  0  0  0  0  0  0  0
   10.6991   -4.4268    0.0000 H   0  0  0  0  0  0  0  0  0  0  0  0
   11.3154   -4.8374    0.0000 H   0  0  0  0  0  0  0  0  0  0  0  0
   12.9562   -3.6631    0.0000 H   0  0  0  0  0  0  0  0  0  0  0  0
   12.3399   -3.2525    0.0000 H   0  0  0  0  0  0  0  0  0  0  0  0
   12.1478   -5.4974    0.0000 H   0  0  0  0  0  0  0  0  0  0  0  0
   13.8859   -4.1770    0.0000 H   0  0  0  0  0  0  0  0  0  0  0  0
   14.5064   -6.0197    0.0000 H   0  0  0  0  0  0  0  0  0  0  0  0
   14.5539   -5.2807    0.0000 H   0  0  0  0  0  0  0  0  0  0  0  0
   12.6250   -5.8729    0.0000 H   0  0  0  0  0  0  0  0  0  0  0  0
   12.5776   -6.6119    0.0000 H   0  0  0  0  0  0  0  0  0  0  0  0
   14.4150   -7.4457    0.0000 H   0  0  0  0  0  0  0  0  0  0  0  0
   14.4624   -6.7067    0.0000 H   0  0  0  0  0  0  0  0  0  0  0  0
   12.5335   -7.2989    0.0000 H   0  0  0  0  0  0  0  0  0  0  0  0
   12.4861   -8.0379    0.0000 H   0  0  0  0  0  0  0  0  0  0  0  0
   14.3235   -8.8717    0.0000 H   0  0  0  0  0  0  0  0  0  0  0  0
   14.3709   -8.1327    0.0000 H   0  0  0  0  0  0  0  0  0  0  0  0
   12.4420   -8.7249    0.0000 H   0  0  0  0  0  0  0  0  0  0  0  0
   12.3946   -9.4639    0.0000 H   0  0  0  0  0  0  0  0  0  0  0  0
   14.2320  -10.2977    0.0000 H   0  0  0  0  0  0  0  0  0  0  0  0
   14.2794   -9.5587    0.0000 H   0  0  0  0  0  0  0  0  0  0  0  0
   12.3760  -10.1102    0.0000 H   0  0  0  0  0  0  0  0  0  0  0  0
   12.6052  -11.2542    0.0000 H   0  0  0  0  0  0  0  0  0  0  0  0
   13.7492  -11.0250    0.0000 H   0  0  0  0  0  0  0  0  0  0  0  0
    7.1181   -0.1199    0.0000 H   0  0  0  0  0  0  0  0  0  0  0  0
    6.6040    1.8636    0.0000 H   0  0  0  0  0  0  0  0  0  0  0  0
    5.8403    1.9937    0.0000 H   0  0  0  0  0  0  0  0  0  0  0  0
    5.3700    1.6696    0.0000 H   0  0  0  0  0  0  0  0  0  0  0  0
    3.8050    1.2050    0.0000 H   0  0  0  0  0  0  0  0  0  0  0  0
    4.6983    0.2925    0.0000 H   0  0  0  0  0  0  0  0  0  0  0  0
    4.5041    1.0263    0.0000 H   0  0  0  0  0  0  0  0  0  0  0  0
    3.3011   -0.1024    0.0000 H   0  0  0  0  0  0  0  0  0  0  0  0
    2.2759    0.7784    0.0000 H   0  0  0  0  0  0  0  0  0  0  0  0
    2.4156    0.2316    0.0000 H   0  0  0  0  0  0  0  0  0  0  0  0
    3.3882    2.1559    0.0000 H   0  0  0  0  0  0  0  0  0  0  0  0
    2.8418    2.3196    0.0000 H   0  0  0  0  0  0  0  0  0  0  0  0
    1.3089    1.9587    0.0000 H   0  0  0  0  0  0  0  0  0  0  0  0
    1.4843    1.1681    0.0000 H   0  0  0  0  0  0  0  0  0  0  0  0
    2.4581    3.1206    0.0000 H   0  0  0  0  0  0  0  0  0  0  0  0
    1.6723    3.3130    0.0000 H   0  0  0  0  0  0  0  0  0  0  0  0
    0.2785    2.8192    0.0000 H   0  0  0  0  0  0  0  0  0  0  0  0
    0.4217    2.2714    0.0000 H   0  0  0  0  0  0  0  0  0  0  0  0
    0.5298    4.2800    0.0000 H   0  0  0  0  0  0  0  0  0  0  0  0
    0.1337    3.8568    0.0000 H   0  0  0  0  0  0  0  0  0  0  0  0
    1.6668    4.9220    0.0000 H   0  0  0  0  0  0  0  0  0  0  0  0
    3.0717    3.6619    0.0000 H   0  0  0  0  0  0  0  0  0  0  0  0
    3.6909    4.3862    0.0000 H   0  0  0  0  0  0  0  0  0  0  0  0
    3.5527    4.9344    0.0000 H   0  0  0  0  0  0  0  0  0  0  0  0
    2.0563    5.8257    0.0000 H   0  0  0  0  0  0  0  0  0  0  0  0
    1.8563    5.1127    0.0000 H   0  0  0  0  0  0  0  0  0  0  0  0
    4.0594    5.6578    0.0000 H   0  0  0  0  0  0  0  0  0  0  0  0
    3.8340    6.4355    0.0000 H   0  0  0  0  0  0  0  0  0  0  0  0
    2.4422    7.2015    0.0000 H   0  0  0  0  0  0  0  0  0  0  0  0
    2.2422    6.4885    0.0000 H   0  0  0  0  0  0  0  0  0  0  0  0
    4.4626    7.1353    0.0000 H   0  0  0  0  0  0  0  0  0  0  0  0
    4.3255    7.6847    0.0000 H   0  0  0  0  0  0  0  0  0  0  0  0
    2.8282    8.5773    0.0000 H   0  0  0  0  0  0  0  0  0  0  0  0
    2.6282    7.8643    0.0000 H   0  0  0  0  0  0  0  0  0  0  0  0
    4.8314    8.4098    0.0000 H   0  0  0  0  0  0  0  0  0  0  0  0
    4.6058    9.1873    0.0000 H   0  0  0  0  0  0  0  0  0  0  0  0
    4.2391   10.1105    0.0000 H   0  0  0  0  0  0  0  0  0  0  0  0
    3.2443    9.9846    0.0000 H   0  0  0  0  0  0  0  0  0  0  0  0
    3.1058    8.9915    0.0000 H   0  0  0  0  0  0  0  0  0  0  0  0
  1  2  1  0  0  0  0
  2  3  1  0  0  0  0
  3  4  1  0  0  0  0
  4  5  1  0  0  0  0
  5  6  1  0  0  0  0
  6  7  1  0  0  0  0
  7  8  1  0  0  0  0
  9  8  1  0  0  0  0
  9 10  2  0  0  0  0
 10 11  1  0  0  0  0
 11 12  1  0  0  0  0
 12 13  1  0  0  0  0
 13 14  1  0  0  0  0
 14 15  1  0  0  0  0
 15 16  1  0  0  0  0
 16 17  1  0  0  0  0
 17 18  1  0  0  0  0
 18 19  2  0  0  0  0
 18 20  1  0  0  0  0
 20 21  1  0  0  0  0
 21 22  1  0  0  0  0
 22 23  1  0  0  0  0
 23 24  1  0  0  0  0
 24 25  2  0  0  0  0
 24 26  1  0  0  0  0
 26 27  1  0  0  0  0
 27 28  1  0  0  0  0
 28 29  1  0  0  0  0
 29 30  1  0  0  0  0
 30 31  1  0  0  0  0
 31 32  1  0  0  0  0
 33 32  1  0  0  0  0
 33 34  2  0  0  0  0
 34 35  1  0  0  0  0
 35 36  1  0  0  0  0
 36 37  1  0  0  0  0
 37 38  1  0  0  0  0
 38 39  1  0  0  0  0
 39 40  1  0  0  0  0
 40 41  1  0  0  0  0
 41 42  1  0  0  0  0
 22 43  1  0  0  0  0
 44 43  1  0  0  0  0
 45 44  1  0  0  0  0
 46 45  1  0  0  0  0
 46 47  1  0  0  0  0
 48 46  1  0  0  0  0
 48 49  1  0  0  0  0
 49 50  1  0  0  0  0
 50 51  2  0  0  0  0
 50 52  1  0  0  0  0
 52 53  1  0  0  0  0
 53 54  1  0  0  0  0
 54 55  1  0  0  0  0
 55 56  1  0  0  0  0
 56 57  1  0  0  0  0
 57 58  1  0  0  0  0
 59 58  1  0  0  0  0
 59 60  2  0  0  0  0
 60 61  1  0  0  0  0
 61 62  1  0  0  0  0
 62 63  1  0  0  0  0
 63 64  1  0  0  0  0
 64 65  1  0  0  0  0
 65 66  1  0  0  0  0
 66 67  1  0  0  0  0
 67 68  1  0  0  0  0
 43 48  1  0  0  0  0
  1 69  1  0  0  0  0
  1 70  1  0  0  0  0
  1 71  1  0  0  0  0
  2 72  1  0  0  0  0
  2 73  1  0  0  0  0
  3 74  1  0  0  0  0
  3 75  1  0  0  0  0
  4 76  1  0  0  0  0
  4 77  1  0  0  0  0
  5 78  1  0  0  0  0
  5 79  1  0  0  0  0
  6 80  1  0  0  0  0
  6 81  1  0  0  0  0
  7 82  1  0  0  0  0
  7 83  1  0  0  0  0
  8 84  1  0  0  0  0
  8 85  1  0  0  0  0
  9 86  1  4  0  0  0
 10 87  1  0  0  0  0
 11 88  1  0  0  0  0
 11 89  1  0  0  0  0
 12 90  1  0  0  0  0
 12 91  1  0  0  0  0
 13 92  1  0  0  0  0
 13 93  1  0  0  0  0
 14 94  1  0  0  0  0
 14 95  1  0  0  0  0
 15 96  1  0  0  0  0
 15 97  1  0  0  0  0
 16 98  1  0  0  0  0
 16 99  1  0  0  0  0
 17100  1  0  0  0  0
 17101  1  0  0  0  0
 21102  1  0  0  0  0
 21103  1  0  0  0  0
 22104  1  0  0  0  0
 26105  1  0  0  0  0
 26106  1  0  0  0  0
 27107  1  0  0  0  0
 27108  1  0  0  0  0
 28109  1  0  0  0  0
 28110  1  0  0  0  0
 29111  1  0  0  0  0
 29112  1  0  0  0  0
 30113  1  0  0  0  0
 30114  1  0  0  0  0
 31115  1  0  0  0  0
 31116  1  0  0  0  0
 32117  1  0  0  0  0
 32118  1  0  0  0  0
 33119  1  4  0  0  0
 34120  1  0  0  0  0
 35121  1  0  0  0  0
 35122  1  0  0  0  0
 36123  1  0  0  0  0
 36124  1  0  0  0  0
 37125  1  0  0  0  0
 37126  1  0  0  0  0
 38127  1  0  0  0  0
 38128  1  0  0  0  0
 39129  1  0  0  0  0
 39130  1  0  0  0  0
 40131  1  0  0  0  0
 40132  1  0  0  0  0
 41133  1  0  0  0  0
 41134  1  0  0  0  0
 42135  1  0  0  0  0
 42136  1  0  0  0  0
 42137  1  0  0  0  0
 43138  1  0  0  0  0
 45139  1  0  0  0  0
 45140  1  0  0  0  0
 46141  1  0  0  0  0
 47142  1  0  0  0  0
 48143  1  0  0  0  0
 52144  1  0  0  0  0
 52145  1  0  0  0  0
 53146  1  0  0  0  0
 53147  1  0  0  0  0
 54148  1  0  0  0  0
 54149  1  0  0  0  0
 55150  1  0  0  0  0
 55151  1  0  0  0  0
 56152  1  0  0  0  0
 56153  1  0  0  0  0
 57154  1  0  0  0  0
 57155  1  0  0  0  0
 58156  1  0  0  0  0
 58157  1  0  0  0  0
 59158  1  4  0  0  0
 60159  1  0  0  0  0
 61160  1  0  0  0  0
 61161  1  0  0  0  0
 62162  1  0  0  0  0
 62163  1  0  0  0  0
 63164  1  0  0  0  0
 63165  1  0  0  0  0
 64166  1  0  0  0  0
 64167  1  0  0  0  0
 65168  1  0  0  0  0
 65169  1  0  0  0  0
 66170  1  0  0  0  0
 66171  1  0  0  0  0
 67172  1  0  0  0  0
 67173  1  0  0  0  0
 68174  1  0  0  0  0
 68175  1  0  0  0  0
 68176  1  0  0  0  0
M  END
>  <id_input>
3871

>  <InChIKey>
PRXRUNOAOLTIEF-UHFFFAOYSA-N

>  <substance_name>
anhydro-D-glucitol trioleate

>  <casrn>
26266-58-0

>  <Molecular weight>
957.4947509765625

>  <guideline>
OECD Guideline 404 (Acute Dermal Irritation / Corrosion)

>  <species>
rabbit

>  <type_of_coverage>
semiocclusive

>  <max_duration(hrs)>
4.0

>  <vehicle>
unchanged (no vehicle)

>  <edema/ erythema score>
0.0

>  <max_score>
4.0

>  <reversibility>
0.0

>  <Outcome>
0

>  <StandardizerResult>
Remove Explicit Hydrogens (ID: RemoveExplicitH)
Clear Stereo (ID: ClearStereo)
Wedge Clean (ID: WedgeClean)
Mesomerize (ID: Mesomerize)
Tautomerize (ID: Tautomerize)
Add Explicit Hydrogens (ID: AddExplicitH)
Neutralize (ID: Neutralize)
Clean 2D (ID: Clean2D)


$$$$

  Mrv1812 02121911042D          

 22 22  0  0  0  0            999 V2000
    3.5634   -0.3335    0.0000 C   0  0  0  0  0  0  0  0  0  0  0  0
    2.8489    0.0790    0.0000 C   0  0  0  0  0  0  0  0  0  0  0  0
    2.8489    0.9040    0.0000 C   0  0  0  0  0  0  0  0  0  0  0  0
    2.1345   -0.3335    0.0000 C   0  0  0  0  0  0  0  0  0  0  0  0
    2.1345   -1.1585    0.0000 O   0  0  0  0  0  0  0  0  0  0  0  0
    1.4200    0.0790    0.0000 O   0  0  0  0  0  0  0  0  0  0  0  0
    0.7055   -0.3335    0.0000 C   0  0  0  0  0  0  0  0  0  0  0  0
   -0.0089    0.0790    0.0000 C   0  0  0  0  0  0  0  0  0  0  0  0
   -0.7234   -0.3335    0.0000 C   0  0  0  0  0  0  0  0  0  0  0  0
   -0.7234   -1.1585    0.0000 C   0  0  0  0  0  0  0  0  0  0  0  0
   -0.0089   -1.5710    0.0000 C   0  0  0  0  0  0  0  0  0  0  0  0
    0.7055   -1.1585    0.0000 C   0  0  0  0  0  0  0  0  0  0  0  0
    3.1509   -1.0480    0.0000 H   0  0  0  0  0  0  0  0  0  0  0  0
    4.2779   -0.7460    0.0000 H   0  0  0  0  0  0  0  0  0  0  0  0
    3.9759    0.3810    0.0000 H   0  0  0  0  0  0  0  0  0  0  0  0
    3.5634    1.3165    0.0000 H   0  0  0  0  0  0  0  0  0  0  0  0
    2.1345    1.3165    0.0000 H   0  0  0  0  0  0  0  0  0  0  0  0
   -0.0089    0.9040    0.0000 H   0  0  0  0  0  0  0  0  0  0  0  0
   -1.4379    0.0790    0.0000 H   0  0  0  0  0  0  0  0  0  0  0  0
   -1.4379   -1.5710    0.0000 H   0  0  0  0  0  0  0  0  0  0  0  0
   -0.0089   -2.3960    0.0000 H   0  0  0  0  0  0  0  0  0  0  0  0
    1.4200   -1.5710    0.0000 H   0  0  0  0  0  0  0  0  0  0  0  0
  1  2  1  0  0  0  0
  2  3  2  0  0  0  0
  2  4  1  0  0  0  0
  4  5  2  0  0  0  0
  4  6  1  0  0  0  0
  6  7  1  0  0  0  0
  8  7  4  0  0  0  0
  9  8  4  0  0  0  0
 10  9  4  0  0  0  0
 11 10  4  0  0  0  0
 12 11  4  0  0  0  0
  7 12  4  0  0  0  0
  1 13  1  0  0  0  0
  1 14  1  0  0  0  0
  1 15  1  0  0  0  0
  3 16  1  0  0  0  0
  3 17  1  0  0  0  0
  8 18  1  0  0  0  0
  9 19  1  0  0  0  0
 10 20  1  0  0  0  0
 11 21  1  0  0  0  0
 12 22  1  0  0  0  0
M  END
>  <id_input>
4798

>  <InChIKey>
QIWKUEJZZCOPFV-UHFFFAOYSA-N

>  <substance_name>
phenyl methacrylate

>  <casrn>
2177-70-0

>  <Molecular weight>
162.18521118164062

>  <guideline>
EU Method B.4 (Acute Toxicity: Dermal Irritation / Corrosion)

>  <species>
rabbit

>  <type_of_coverage>
semiocclusive

>  <max_duration(hrs)>
4.0

>  <vehicle>
unchanged (no vehicle)

>  <edema/ erythema score>
0.165

>  <max_score>
4.0

>  <reversibility>
0.0

>  <Outcome>
0

>  <StandardizerResult>
Remove Explicit Hydrogens (ID: RemoveExplicitH)
Dearomatize (ID: Dearomatize)
Clear Stereo (ID: ClearStereo)
Wedge Clean (ID: WedgeClean)
Mesomerize (ID: Mesomerize)
Tautomerize (ID: Tautomerize)
Aromatize (ID: Aromatize)
Add Explicit Hydrogens (ID: AddExplicitH)
Neutralize (ID: Neutralize)
Clean 2D (ID: Clean2D)


$$$$

  Mrv1812 02121911042D          

 39 39  0  0  0  0            999 V2000
   -0.8139    1.1455    0.0000 C   0  0  0  0  0  0  0  0  0  0  0  0
   -0.0994    0.7330    0.0000 C   0  0  0  0  0  0  0  0  0  0  0  0
    0.6150    1.1455    0.0000 C   0  0  0  0  0  0  0  0  0  0  0  0
    1.3295    0.7330    0.0000 C   0  0  0  0  0  0  0  0  0  0  0  0
    2.0440    1.1455    0.0000 C   0  0  0  0  0  0  0  0  0  0  0  0
    2.0440    1.9705    0.0000 C   0  0  0  0  0  0  0  0  0  0  0  0
    2.7585    2.3830    0.0000 C   0  0  0  0  0  0  0  0  0  0  0  0
    2.7585    0.7330    0.0000 C   0  0  0  0  0  0  0  0  0  0  0  0
    3.4729    1.1455    0.0000 O   0  0  0  0  0  0  0  0  0  0  0  0
    4.1874    0.7330    0.0000 C   0  0  0  0  0  0  0  0  0  0  0  0
    4.1874   -0.0920    0.0000 O   0  0  0  0  0  0  0  0  0  0  0  0
    4.9019    1.1455    0.0000 C   0  0  0  0  0  0  0  0  0  0  0  0
    5.6163    0.7330    0.0000 C   0  0  0  0  0  0  0  0  0  0  0  0
    6.3308    1.1455    0.0000 C   0  0  0  0  0  0  0  0  0  0  0  0
    6.3308    1.9705    0.0000 C   0  0  0  0  0  0  0  0  0  0  0  0
    5.6163    2.3830    0.0000 C   0  0  0  0  0  0  0  0  0  0  0  0
    4.9019    1.9705    0.0000 C   0  0  0  0  0  0  0  0  0  0  0  0
   -0.4014    1.8599    0.0000 H   0  0  0  0  0  0  0  0  0  0  0  0
   -1.5284    1.5580    0.0000 H   0  0  0  0  0  0  0  0  0  0  0  0
   -1.2264    0.4310    0.0000 H   0  0  0  0  0  0  0  0  0  0  0  0
   -0.4697   -0.0043    0.0000 H   0  0  0  0  0  0  0  0  0  0  0  0
    0.2708   -0.0043    0.0000 H   0  0  0  0  0  0  0  0  0  0  0  0
    0.9853    1.8827    0.0000 H   0  0  0  0  0  0  0  0  0  0  0  0
    0.2448    1.8827    0.0000 H   0  0  0  0  0  0  0  0  0  0  0  0
    0.9593   -0.0043    0.0000 H   0  0  0  0  0  0  0  0  0  0  0  0
    1.6998   -0.0043    0.0000 H   0  0  0  0  0  0  0  0  0  0  0  0
    1.3295    1.5580    0.0000 H   0  0  0  0  0  0  0  0  0  0  0  0
    1.9007    2.7829    0.0000 H   0  0  0  0  0  0  0  0  0  0  0  0
    1.4120    2.5008    0.0000 H   0  0  0  0  0  0  0  0  0  0  0  0
    2.9893    1.5909    0.0000 H   0  0  0  0  0  0  0  0  0  0  0  0
    3.5827    2.4190    0.0000 H   0  0  0  0  0  0  0  0  0  0  0  0
    2.9194    3.1921    0.0000 H   0  0  0  0  0  0  0  0  0  0  0  0
    2.3882   -0.0043    0.0000 H   0  0  0  0  0  0  0  0  0  0  0  0
    3.1287   -0.0043    0.0000 H   0  0  0  0  0  0  0  0  0  0  0  0
    5.6163   -0.0920    0.0000 H   0  0  0  0  0  0  0  0  0  0  0  0
    7.0453    0.7330    0.0000 H   0  0  0  0  0  0  0  0  0  0  0  0
    7.0453    2.3830    0.0000 H   0  0  0  0  0  0  0  0  0  0  0  0
    5.6163    3.2080    0.0000 H   0  0  0  0  0  0  0  0  0  0  0  0
    4.1874    2.3830    0.0000 H   0  0  0  0  0  0  0  0  0  0  0  0
  1  2  1  0  0  0  0
  2  3  1  0  0  0  0
  3  4  1  0  0  0  0
  4  5  1  0  0  0  0
  5  6  1  0  0  0  0
  6  7  1  0  0  0  0
  5  8  1  0  0  0  0
  8  9  1  0  0  0  0
  9 10  1  0  0  0  0
 10 11  2  0  0  0  0
 10 12  1  0  0  0  0
 13 12  4  0  0  0  0
 14 13  4  0  0  0  0
 15 14  4  0  0  0  0
 16 15  4  0  0  0  0
 17 16  4  0  0  0  0
 12 17  4  0  0  0  0
  1 18  1  0  0  0  0
  1 19  1  0  0  0  0
  1 20  1  0  0  0  0
  2 21  1  0  0  0  0
  2 22  1  0  0  0  0
  3 23  1  0  0  0  0
  3 24  1  0  0  0  0
  4 25  1  0  0  0  0
  4 26  1  0  0  0  0
  5 27  1  0  0  0  0
  6 28  1  0  0  0  0
  6 29  1  0  0  0  0
  7 30  1  0  0  0  0
  7 31  1  0  0  0  0
  7 32  1  0  0  0  0
  8 33  1  0  0  0  0
  8 34  1  0  0  0  0
 13 35  1  0  0  0  0
 14 36  1  0  0  0  0
 15 37  1  0  0  0  0
 16 38  1  0  0  0  0
 17 39  1  0  0  0  0
M  END
>  <id_input>
2472

>  <InChIKey>
UADWUILHKRXHMM-UHFFFAOYSA-N

>  <substance_name>
2-ethylhexyl benzoate

>  <casrn>
5444-75-7

>  <Molecular weight>
234.333984375

>  <guideline>
OECD Guideline 404 (Acute Dermal Irritation / Corrosion)

>  <species>
rabbit

>  <type_of_coverage>
semiocclusive

>  <max_duration(hrs)>
4.0

>  <vehicle>
unchanged (no vehicle)

>  <edema/ erythema score>
0.883333333333333

>  <max_score>
4.0

>  <reversibility>
0.0

>  <Outcome>
0

>  <StandardizerResult>
Remove Explicit Hydrogens (ID: RemoveExplicitH)
Dearomatize (ID: Dearomatize)
Clear Stereo (ID: ClearStereo)
Wedge Clean (ID: WedgeClean)
Mesomerize (ID: Mesomerize)
Tautomerize (ID: Tautomerize)
Aromatize (ID: Aromatize)
Add Explicit Hydrogens (ID: AddExplicitH)
Neutralize (ID: Neutralize)
Clean 2D (ID: Clean2D)


$$$$

  Mrv1812 02121911042D          

 27 27  0  0  0  0            999 V2000
   -0.9964   -0.6729    0.0000 C   0  0  0  0  0  0  0  0  0  0  0  0
   -0.2820   -1.0854    0.0000 C   0  0  0  0  0  0  0  0  0  0  0  0
    0.4325   -0.6729    0.0000 C   0  0  0  0  0  0  0  0  0  0  0  0
    1.1470   -1.0854    0.0000 C   0  0  0  0  0  0  0  0  0  0  0  0
    1.1470   -1.9104    0.0000 O   0  0  0  0  0  0  0  0  0  0  0  0
    1.8615   -0.6729    0.0000 O   0  0  0  0  0  0  0  0  0  0  0  0
    2.5759   -1.0854    0.0000 C   0  0  0  0  0  0  0  0  0  0  0  0
    3.2904   -0.6729    0.0000 C   0  0  0  0  0  0  0  0  0  0  0  0
    4.0049   -1.0854    0.0000 C   0  0  0  0  0  0  0  0  0  0  0  0
    4.7193   -0.6729    0.0000 C   0  0  0  0  0  0  0  0  0  0  0  0
    4.7193    0.1521    0.0000 C   0  0  0  0  0  0  0  0  0  0  0  0
    4.0049    0.5646    0.0000 C   0  0  0  0  0  0  0  0  0  0  0  0
    3.2904    0.1521    0.0000 C   0  0  0  0  0  0  0  0  0  0  0  0
   -0.5839    0.0415    0.0000 H   0  0  0  0  0  0  0  0  0  0  0  0
   -1.7109   -0.2604    0.0000 H   0  0  0  0  0  0  0  0  0  0  0  0
   -1.4089   -1.3874    0.0000 H   0  0  0  0  0  0  0  0  0  0  0  0
   -0.6522   -1.8227    0.0000 H   0  0  0  0  0  0  0  0  0  0  0  0
    0.0883   -1.8227    0.0000 H   0  0  0  0  0  0  0  0  0  0  0  0
    0.8028    0.0643    0.0000 H   0  0  0  0  0  0  0  0  0  0  0  0
    0.0623    0.0643    0.0000 H   0  0  0  0  0  0  0  0  0  0  0  0
    2.2057   -1.8227    0.0000 H   0  0  0  0  0  0  0  0  0  0  0  0
    2.9462   -1.8227    0.0000 H   0  0  0  0  0  0  0  0  0  0  0  0
    4.0049   -1.9104    0.0000 H   0  0  0  0  0  0  0  0  0  0  0  0
    5.4338   -1.0854    0.0000 H   0  0  0  0  0  0  0  0  0  0  0  0
    5.4338    0.5646    0.0000 H   0  0  0  0  0  0  0  0  0  0  0  0
    4.0049    1.3896    0.0000 H   0  0  0  0  0  0  0  0  0  0  0  0
    2.5759    0.5646    0.0000 H   0  0  0  0  0  0  0  0  0  0  0  0
  1  2  1  0  0  0  0
  2  3  1  0  0  0  0
  3  4  1  0  0  0  0
  4  5  2  0  0  0  0
  4  6  1  0  0  0  0
  6  7  1  0  0  0  0
  7  8  1  0  0  0  0
  9  8  4  0  0  0  0
 10  9  4  0  0  0  0
 11 10  4  0  0  0  0
 12 11  4  0  0  0  0
 13 12  4  0  0  0  0
  8 13  4  0  0  0  0
  1 14  1  0  0  0  0
  1 15  1  0  0  0  0
  1 16  1  0  0  0  0
  2 17  1  0  0  0  0
  2 18  1  0  0  0  0
  3 19  1  0  0  0  0
  3 20  1  0  0  0  0
  7 21  1  0  0  0  0
  7 22  1  0  0  0  0
  9 23  1  0  0  0  0
 10 24  1  0  0  0  0
 11 25  1  0  0  0  0
 12 26  1  0  0  0  0
 13 27  1  0  0  0  0
M  END
>  <id_input>
3901

>  <InChIKey>
VONGZNXBKCOUHB-UHFFFAOYSA-N

>  <substance_name>
benzyl butanoate

>  <casrn>
103-37-7

>  <Molecular weight>
178.2276611328125

>  <guideline>
OECD Guideline 404 (Acute Dermal Irritation / Corrosion)

>  <species>
rabbit

>  <type_of_coverage>
occlusive

>  <max_duration(hrs)>
4.0

>  <vehicle>
unchanged (no vehicle)

>  <edema/ erythema score>
0.0

>  <max_score>
3.0

>  <reversibility>
0.0

>  <Outcome>
0

>  <StandardizerResult>
Remove Explicit Hydrogens (ID: RemoveExplicitH)
Dearomatize (ID: Dearomatize)
Clear Stereo (ID: ClearStereo)
Wedge Clean (ID: WedgeClean)
Mesomerize (ID: Mesomerize)
Tautomerize (ID: Tautomerize)
Aromatize (ID: Aromatize)
Add Explicit Hydrogens (ID: AddExplicitH)
Neutralize (ID: Neutralize)
Clean 2D (ID: Clean2D)


$$$$

  Mrv1812 02121911042D          

 40 40  0  0  0  0            999 V2000
   -2.0536    0.9859    0.0000 C   0  0  0  0  0  0  0  0  0  0  0  0
   -1.3391    1.3984    0.0000 C   0  0  0  0  0  0  0  0  0  0  0  0
   -0.6246    0.9859    0.0000 O   0  0  0  0  0  0  0  0  0  0  0  0
    0.0898    1.3984    0.0000 C   0  0  0  0  0  0  0  0  0  0  0  0
    0.0898    2.2234    0.0000 O   0  0  0  0  0  0  0  0  0  0  0  0
    0.8043    0.9859    0.0000 O   0  0  0  0  0  0  0  0  0  0  0  0
    0.8043    0.1609    0.0000 C   0  0  0  0  0  0  0  0  0  0  0  0
    0.0898   -0.2516    0.0000 C   0  0  0  0  0  0  0  0  0  0  0  0
    0.0898   -1.0766    0.0000 C   0  0  0  0  0  0  0  0  0  0  0  0
    0.8043   -1.4891    0.0000 C   0  0  0  0  0  0  0  0  0  0  0  0
    1.5188   -1.0766    0.0000 C   0  0  0  0  0  0  0  0  0  0  0  0
    1.5188   -0.2516    0.0000 C   0  0  0  0  0  0  0  0  0  0  0  0
    2.2332    0.1609    0.0000 C   0  0  0  0  0  0  0  0  0  0  0  0
    2.9477    0.5734    0.0000 C   0  0  0  0  0  0  0  0  0  0  0  0
    1.8207    0.8754    0.0000 C   0  0  0  0  0  0  0  0  0  0  0  0
    2.6457   -0.5535    0.0000 C   0  0  0  0  0  0  0  0  0  0  0  0
   -2.4661    1.7004    0.0000 H   0  0  0  0  0  0  0  0  0  0  0  0
   -2.7681    0.5734    0.0000 H   0  0  0  0  0  0  0  0  0  0  0  0
   -1.6411    0.2715    0.0000 H   0  0  0  0  0  0  0  0  0  0  0  0
   -0.9688    2.1357    0.0000 H   0  0  0  0  0  0  0  0  0  0  0  0
   -1.7094    2.1357    0.0000 H   0  0  0  0  0  0  0  0  0  0  0  0
    0.0898    0.5734    0.0000 H   0  0  0  0  0  0  0  0  0  0  0  0
   -0.6854    0.0306    0.0000 H   0  0  0  0  0  0  0  0  0  0  0  0
   -0.6854   -0.5337    0.0000 H   0  0  0  0  0  0  0  0  0  0  0  0
   -0.5695   -1.5724    0.0000 H   0  0  0  0  0  0  0  0  0  0  0  0
   -0.0809   -1.8837    0.0000 H   0  0  0  0  0  0  0  0  0  0  0  0
    0.8956   -2.3090    0.0000 H   0  0  0  0  0  0  0  0  0  0  0  0
    1.4143   -2.0445    0.0000 H   0  0  0  0  0  0  0  0  0  0  0  0
    1.9721   -1.7658    0.0000 H   0  0  0  0  0  0  0  0  0  0  0  0
    2.3424   -1.1245    0.0000 H   0  0  0  0  0  0  0  0  0  0  0  0
    2.2332   -0.6641    0.0000 H   0  0  0  0  0  0  0  0  0  0  0  0
    3.3602   -0.1410    0.0000 H   0  0  0  0  0  0  0  0  0  0  0  0
    3.6622    0.9859    0.0000 H   0  0  0  0  0  0  0  0  0  0  0  0
    2.5352    1.2879    0.0000 H   0  0  0  0  0  0  0  0  0  0  0  0
    1.7131    1.6934    0.0000 H   0  0  0  0  0  0  0  0  0  0  0  0
    1.0239    1.0889    0.0000 H   0  0  0  0  0  0  0  0  0  0  0  0
    1.3185    0.2209    0.0000 H   0  0  0  0  0  0  0  0  0  0  0  0
    2.9460   -1.3219    0.0000 H   0  0  0  0  0  0  0  0  0  0  0  0
    3.4243   -0.8266    0.0000 H   0  0  0  0  0  0  0  0  0  0  0  0
    2.8593    0.2434    0.0000 H   0  0  0  0  0  0  0  0  0  0  0  0
  1  2  1  0  0  0  0
  2  3  1  0  0  0  0
  3  4  1  0  0  0  0
  4  5  2  0  0  0  0
  4  6  1  0  0  0  0
  6  7  1  0  0  0  0
  8  7  1  0  0  0  0
  9  8  1  0  0  0  0
 10  9  1  0  0  0  0
 11 10  1  0  0  0  0
 12 11  1  0  0  0  0
 12 13  1  0  0  0  0
 13 14  1  0  0  0  0
 13 15  1  0  0  0  0
 13 16  1  0  0  0  0
  7 12  1  0  0  0  0
  1 17  1  0  0  0  0
  1 18  1  0  0  0  0
  1 19  1  0  0  0  0
  2 20  1  0  0  0  0
  2 21  1  0  0  0  0
  7 22  1  0  0  0  0
  8 23  1  0  0  0  0
  8 24  1  0  0  0  0
  9 25  1  0  0  0  0
  9 26  1  0  0  0  0
 10 27  1  0  0  0  0
 10 28  1  0  0  0  0
 11 29  1  0  0  0  0
 11 30  1  0  0  0  0
 12 31  1  0  0  0  0
 14 32  1  0  0  0  0
 14 33  1  0  0  0  0
 14 34  1  0  0  0  0
 15 35  1  0  0  0  0
 15 36  1  0  0  0  0
 15 37  1  0  0  0  0
 16 38  1  0  0  0  0
 16 39  1  0  0  0  0
 16 40  1  0  0  0  0
M  END
>  <id_input>
2607

>  <InChIKey>
ZHWLEUGSDGROJS-UHFFFAOYSA-N

>  <substance_name>
2-tert-butylcyclohexyl ethyl carbonate

>  <casrn>
67801-64-3

>  <Molecular weight>
228.32786560058594

>  <guideline>
OECD Guideline 404 (Acute Dermal Irritation / Corrosion)

>  <species>
rabbit

>  <type_of_coverage>
semiocclusive

>  <max_duration(hrs)>
4.0

>  <vehicle>
unchanged (no vehicle)

>  <edema/ erythema score>
1.0

>  <max_score>
4.0

>  <reversibility>
0.0

>  <Outcome>
0

>  <StandardizerResult>
Remove Explicit Hydrogens (ID: RemoveExplicitH)
Clear Stereo (ID: ClearStereo)
Wedge Clean (ID: WedgeClean)
Mesomerize (ID: Mesomerize)
Tautomerize (ID: Tautomerize)
Add Explicit Hydrogens (ID: AddExplicitH)
Neutralize (ID: Neutralize)
Clean 2D (ID: Clean2D)


$$$$

  Mrv1812 02121911042D          

 22 21  0  0  0  0            999 V2000
   -0.4355   -0.4906    0.0000 C   0  0  0  0  0  0  0  0  0  0  0  0
    0.2790   -0.0781    0.0000 C   0  0  0  0  0  0  0  0  0  0  0  0
    0.9935   -0.4906    0.0000 C   0  0  0  0  0  0  0  0  0  0  0  0
    0.9935   -1.3156    0.0000 C   0  0  0  0  0  0  0  0  0  0  0  0
    1.7079   -0.0781    0.0000 C   0  0  0  0  0  0  0  0  0  0  0  0
    1.7079    0.7469    0.0000 N   0  0  0  0  0  0  0  0  0  0  0  0
    2.4224   -0.4906    0.0000 C   0  0  0  0  0  0  0  0  0  0  0  0
    3.1369   -0.0781    0.0000 O   0  0  0  0  0  0  0  0  0  0  0  0
    2.4224   -1.3156    0.0000 O   0  0  0  0  0  0  0  0  0  0  0  0
   -0.8480    0.2239    0.0000 H   0  0  0  0  0  0  0  0  0  0  0  0
   -1.1499   -0.9031    0.0000 H   0  0  0  0  0  0  0  0  0  0  0  0
   -0.0230   -1.2050    0.0000 H   0  0  0  0  0  0  0  0  0  0  0  0
    0.6493    0.6592    0.0000 H   0  0  0  0  0  0  0  0  0  0  0  0
   -0.0913    0.6592    0.0000 H   0  0  0  0  0  0  0  0  0  0  0  0
    0.2790   -0.9031    0.0000 H   0  0  0  0  0  0  0  0  0  0  0  0
    0.4101   -1.8989    0.0000 H   0  0  0  0  0  0  0  0  0  0  0  0
    1.4060   -2.0300    0.0000 H   0  0  0  0  0  0  0  0  0  0  0  0
    1.7904   -1.1020    0.0000 H   0  0  0  0  0  0  0  0  0  0  0  0
    0.9935    0.3344    0.0000 H   0  0  0  0  0  0  0  0  0  0  0  0
    2.4452    1.1172    0.0000 H   0  0  0  0  0  0  0  0  0  0  0  0
    1.6600    1.5705    0.0000 H   0  0  0  0  0  0  0  0  0  0  0  0
    3.8513   -0.4906    0.0000 H   0  0  0  0  0  0  0  0  0  0  0  0
  1  2  1  0  0  0  0
  2  3  1  0  0  0  0
  3  4  1  0  0  0  0
  3  5  1  0  0  0  0
  5  6  1  0  0  0  0
  5  7  1  0  0  0  0
  7  8  1  0  0  0  0
  7  9  2  0  0  0  0
  1 10  1  0  0  0  0
  1 11  1  0  0  0  0
  1 12  1  0  0  0  0
  2 13  1  0  0  0  0
  2 14  1  0  0  0  0
  3 15  1  0  0  0  0
  4 16  1  0  0  0  0
  4 17  1  0  0  0  0
  4 18  1  0  0  0  0
  5 19  1  0  0  0  0
  6 20  1  0  0  0  0
  6 21  1  0  0  0  0
  8 22  1  0  0  0  0
M  END
>  <id_input>
73

>  <InChIKey>
AGPKZVBTJJNPAG-UHFFFAOYSA-N

>  <substance_name>
(2S)-2-amino-3-methylpentanoic acid

>  <casrn>
73-32-5

>  <Molecular weight>
131.1729278564453

>  <guideline>
OECD Guideline 404 (Acute Dermal Irritation / Corrosion)

>  <species>
rabbit

>  <type_of_coverage>
occlusive

>  <max_duration(hrs)>
4.0

>  <vehicle>
water

>  <edema/ erythema score>
0.0

>  <max_score>
4.0

>  <reversibility>
0.0

>  <Outcome>
0

>  <StandardizerResult>
Remove Explicit Hydrogens (ID: RemoveExplicitH)
Clear Stereo (ID: ClearStereo)
Wedge Clean (ID: WedgeClean)
Mesomerize (ID: Mesomerize)
Tautomerize (ID: Tautomerize)
Add Explicit Hydrogens (ID: AddExplicitH)
Neutralize (ID: Neutralize)
Clean 2D (ID: Clean2D)


$$$$

  Mrv1812 02121911042D          

 25 24  0  0  0  0            999 V2000
   -0.3934    2.0408    0.0000 C   0  0  0  0  0  0  0  0  0  0  0  0
   -0.3934    1.2158    0.0000 C   0  0  0  0  0  0  0  0  0  0  0  0
    0.3211    0.8033    0.0000 C   0  0  0  0  0  0  0  0  0  0  0  0
    0.3211   -0.0217    0.0000 C   0  0  0  0  0  0  0  0  0  0  0  0
    1.0356   -0.4342    0.0000 C   0  0  0  0  0  0  0  0  0  0  0  0
    1.7500   -0.0217    0.0000 C   0  0  0  0  0  0  0  0  0  0  0  0
    2.4645   -0.4342    0.0000 O   0  0  0  0  0  0  0  0  0  0  0  0
    3.1790   -0.0217    0.0000 C   0  0  0  0  0  0  0  0  0  0  0  0
    3.1790    0.8033    0.0000 O   0  0  0  0  0  0  0  0  0  0  0  0
    3.8934   -0.4342    0.0000 O   0  0  0  0  0  0  0  0  0  0  0  0
    4.6079   -0.0217    0.0000 C   0  0  0  0  0  0  0  0  0  0  0  0
    0.4316    2.0408    0.0000 H   0  0  0  0  0  0  0  0  0  0  0  0
   -0.3934    2.8658    0.0000 H   0  0  0  0  0  0  0  0  0  0  0  0
   -1.2184    2.0408    0.0000 H   0  0  0  0  0  0  0  0  0  0  0  0
   -1.2170    1.1678    0.0000 H   0  0  0  0  0  0  0  0  0  0  0  0
   -0.8467    0.5265    0.0000 H   0  0  0  0  0  0  0  0  0  0  0  0
    1.0356    1.2158    0.0000 H   0  0  0  0  0  0  0  0  0  0  0  0
   -0.3934   -0.4342    0.0000 H   0  0  0  0  0  0  0  0  0  0  0  0
    0.6653   -1.1715    0.0000 H   0  0  0  0  0  0  0  0  0  0  0  0
    1.4058   -1.1715    0.0000 H   0  0  0  0  0  0  0  0  0  0  0  0
    2.1203    0.7155    0.0000 H   0  0  0  0  0  0  0  0  0  0  0  0
    1.3798    0.7155    0.0000 H   0  0  0  0  0  0  0  0  0  0  0  0
    5.0204   -0.7362    0.0000 H   0  0  0  0  0  0  0  0  0  0  0  0
    5.3224    0.3908    0.0000 H   0  0  0  0  0  0  0  0  0  0  0  0
    4.1954    0.6927    0.0000 H   0  0  0  0  0  0  0  0  0  0  0  0
  1  2  1  0  0  0  0
  3  2  1  4  0  0  0
  3  4  2  0  0  0  0
  4  5  1  0  0  0  0
  5  6  1  0  0  0  0
  6  7  1  0  0  0  0
  7  8  1  0  0  0  0
  8  9  2  0  0  0  0
  8 10  1  0  0  0  0
 10 11  1  0  0  0  0
  1 12  1  0  0  0  0
  1 13  1  0  0  0  0
  1 14  1  0  0  0  0
  2 15  1  0  0  0  0
  2 16  1  0  0  0  0
  3 17  1  0  0  0  0
  4 18  1  0  0  0  0
  5 19  1  0  0  0  0
  5 20  1  0  0  0  0
  6 21  1  0  0  0  0
  6 22  1  0  0  0  0
 11 23  1  0  0  0  0
 11 24  1  0  0  0  0
 11 25  1  0  0  0  0
M  END
>  <id_input>
108

>  <InChIKey>
BLOXMGXSDAAJGX-UHFFFAOYSA-N

>  <substance_name>
(3Z)-hex-3-en-1-yl methyl carbonate

>  <casrn>
67633-96-9

>  <Molecular weight>
158.19496154785156

>  <guideline>
OECD Guideline 404 (Acute Dermal Irritation / Corrosion)

>  <species>
rabbit

>  <type_of_coverage>
semiocclusive

>  <max_duration(hrs)>
4.0

>  <vehicle>
unchanged (no vehicle)

>  <edema/ erythema score>
0.443333333333333

>  <max_score>
4.0

>  <reversibility>
0.0

>  <Outcome>
0

>  <StandardizerResult>
Remove Explicit Hydrogens (ID: RemoveExplicitH)
Clear Stereo (ID: ClearStereo)
Wedge Clean (ID: WedgeClean)
Mesomerize (ID: Mesomerize)
Tautomerize (ID: Tautomerize)
Add Explicit Hydrogens (ID: AddExplicitH)
Neutralize (ID: Neutralize)
Clean 2D (ID: Clean2D)


$$$$

  Mrv1812 02121911042D          

 45 47  0  0  0  0            999 V2000
   -2.4804    0.7127    0.0000 C   0  0  0  0  0  0  0  0  0  0  0  0
   -1.7659    0.3002    0.0000 C   0  0  0  0  0  0  0  0  0  0  0  0
   -1.0514    0.7127    0.0000 C   0  0  0  0  0  0  0  0  0  0  0  0
   -0.8452   -0.1123    0.0000 C   0  0  0  0  0  0  0  0  0  0  0  0
   -1.0514   -0.9373    0.0000 C   0  0  0  0  0  0  0  0  0  0  0  0
   -0.3370   -0.5248    0.0000 C   0  0  0  0  0  0  0  0  0  0  0  0
   -0.3370    0.3002    0.0000 C   0  0  0  0  0  0  0  0  0  0  0  0
    0.3775    0.7127    0.0000 C   0  0  0  0  0  0  0  0  0  0  0  0
    1.0920    0.3002    0.0000 C   0  0  0  0  0  0  0  0  0  0  0  0
    1.8064    0.7127    0.0000 C   0  0  0  0  0  0  0  0  0  0  0  0
    1.8064    1.5377    0.0000 C   0  0  0  0  0  0  0  0  0  0  0  0
    1.0920    1.9502    0.0000 C   0  0  0  0  0  0  0  0  0  0  0  0
    1.0920    2.7752    0.0000 O   0  0  0  0  0  0  0  0  0  0  0  0
    0.3775    1.5377    0.0000 C   0  0  0  0  0  0  0  0  0  0  0  0
   -1.7659   -0.5248    0.0000 C   0  0  0  0  0  0  0  0  0  0  0  0
   -2.0481   -1.3001    0.0000 C   0  0  0  0  0  0  0  0  0  0  0  0
   -2.5784   -0.3816    0.0000 C   0  0  0  0  0  0  0  0  0  0  0  0
   -2.0679    1.4272    0.0000 H   0  0  0  0  0  0  0  0  0  0  0  0
   -3.1949    1.1252    0.0000 H   0  0  0  0  0  0  0  0  0  0  0  0
   -2.8929   -0.0018    0.0000 H   0  0  0  0  0  0  0  0  0  0  0  0
   -1.7659    1.1252    0.0000 H   0  0  0  0  0  0  0  0  0  0  0  0
   -0.6389    1.4272    0.0000 H   0  0  0  0  0  0  0  0  0  0  0  0
   -1.5909    0.2405    0.0000 H   0  0  0  0  0  0  0  0  0  0  0  0
   -1.5909   -0.4652    0.0000 H   0  0  0  0  0  0  0  0  0  0  0  0
   -1.0514   -1.7623    0.0000 H   0  0  0  0  0  0  0  0  0  0  0  0
    0.1164   -1.2141    0.0000 H   0  0  0  0  0  0  0  0  0  0  0  0
    0.4866   -0.5728    0.0000 H   0  0  0  0  0  0  0  0  0  0  0  0
   -0.3370    1.1252    0.0000 H   0  0  0  0  0  0  0  0  0  0  0  0
    0.3775   -0.1123    0.0000 H   0  0  0  0  0  0  0  0  0  0  0  0
    1.2352   -0.5123    0.0000 H   0  0  0  0  0  0  0  0  0  0  0  0
    1.7240   -0.2301    0.0000 H   0  0  0  0  0  0  0  0  0  0  0  0
    2.5655    0.3896    0.0000 H   0  0  0  0  0  0  0  0  0  0  0  0
    2.5908    0.9684    0.0000 H   0  0  0  0  0  0  0  0  0  0  0  0
    2.4709    2.0267    0.0000 H   0  0  0  0  0  0  0  0  0  0  0  0
    1.9825    2.3437    0.0000 H   0  0  0  0  0  0  0  0  0  0  0  0
    1.8064    2.3627    0.0000 H   0  0  0  0  0  0  0  0  0  0  0  0
    0.6795    3.4897    0.0000 H   0  0  0  0  0  0  0  0  0  0  0  0
    0.2342    2.3501    0.0000 H   0  0  0  0  0  0  0  0  0  0  0  0
   -0.2545    2.0680    0.0000 H   0  0  0  0  0  0  0  0  0  0  0  0
   -2.8121   -0.9887    0.0000 H   0  0  0  0  0  0  0  0  0  0  0  0
   -2.3883   -2.0517    0.0000 H   0  0  0  0  0  0  0  0  0  0  0  0
   -1.3099   -1.6685    0.0000 H   0  0  0  0  0  0  0  0  0  0  0  0
   -2.1636    0.3316    0.0000 H   0  0  0  0  0  0  0  0  0  0  0  0
   -3.3926   -0.5147    0.0000 H   0  0  0  0  0  0  0  0  0  0  0  0
   -2.1724   -1.0998    0.0000 H   0  0  0  0  0  0  0  0  0  0  0  0
  1  2  1  0  0  0  0
  3  2  1  0  0  0  0
  3  4  1  0  0  0  0
  4  5  1  0  0  0  0
  5  6  1  0  0  0  0
  6  7  1  0  0  0  0
  7  8  1  0  0  0  0
  9  8  1  0  0  0  0
 10  9  1  0  0  0  0
 11 10  1  0  0  0  0
 12 11  1  0  0  0  0
 12 13  1  0  0  0  0
 14 12  1  0  0  0  0
 15  5  1  0  0  0  0
 15 16  1  0  0  0  0
 15 17  1  0  0  0  0
  2 15  1  0  0  0  0
  7  3  1  0  0  0  0
  8 14  1  0  0  0  0
  1 18  1  0  0  0  0
  1 19  1  0  0  0  0
  1 20  1  0  0  0  0
  2 21  1  0  0  0  0
  3 22  1  0  0  0  0
  4 23  1  0  0  0  0
  4 24  1  0  0  0  0
  5 25  1  0  0  0  0
  6 26  1  0  0  0  0
  6 27  1  0  0  0  0
  7 28  1  0  0  0  0
  8 29  1  0  0  0  0
  9 30  1  0  0  0  0
  9 31  1  0  0  0  0
 10 32  1  0  0  0  0
 10 33  1  0  0  0  0
 11 34  1  0  0  0  0
 11 35  1  0  0  0  0
 12 36  1  0  0  0  0
 13 37  1  0  0  0  0
 14 38  1  0  0  0  0
 14 39  1  0  0  0  0
 16 40  1  0  0  0  0
 16 41  1  0  0  0  0
 16 42  1  0  0  0  0
 17 43  1  0  0  0  0
 17 44  1  0  0  0  0
 17 45  1  0  0  0  0
M  END
>  <id_input>
2796

>  <InChIKey>
BWVZAZPLUTUBKD-UHFFFAOYSA-N

>  <substance_name>
3-{5,5,6-trimethylbicyclo[2.2.1]heptan-2-yl}cyclohexan-1-ol

>  <casrn>
3407-42-9

>  <Molecular weight>
236.39292907714844

>  <guideline>
OECD Guideline 404 (Acute Dermal Irritation / Corrosion)

>  <species>
rabbit

>  <type_of_coverage>
occlusive

>  <max_duration(hrs)>
4.0

>  <vehicle>
other: distilled water

>  <edema/ erythema score>
0.0

>  <max_score>
3.0

>  <reversibility>
0.0

>  <Outcome>
0

>  <StandardizerResult>
Remove Explicit Hydrogens (ID: RemoveExplicitH)
Clear Stereo (ID: ClearStereo)
Wedge Clean (ID: WedgeClean)
Mesomerize (ID: Mesomerize)
Tautomerize (ID: Tautomerize)
Add Explicit Hydrogens (ID: AddExplicitH)
Neutralize (ID: Neutralize)
Clean 2D (ID: Clean2D)


$$$$

  Mrv1812 02121911042D          

 18 17  0  0  0  0            999 V2000
    1.4853    1.2755    0.0000 C   0  0  0  0  0  0  0  0  0  0  0  0
    1.0728    0.5611    0.0000 C   0  0  0  0  0  0  0  0  0  0  0  0
    0.3584    0.9736    0.0000 C   0  0  0  0  0  0  0  0  0  0  0  0
   -0.3561    0.5611    0.0000 O   0  0  0  0  0  0  0  0  0  0  0  0
    1.7873    0.1486    0.0000 C   0  0  0  0  0  0  0  0  0  0  0  0
    2.5018    0.5611    0.0000 O   0  0  0  0  0  0  0  0  0  0  0  0
    0.6603   -0.1534    0.0000 C   0  0  0  0  0  0  0  0  0  0  0  0
   -0.1647   -0.1534    0.0000 O   0  0  0  0  0  0  0  0  0  0  0  0
    2.1998    0.8630    0.0000 H   0  0  0  0  0  0  0  0  0  0  0  0
    1.8978    1.9900    0.0000 H   0  0  0  0  0  0  0  0  0  0  0  0
    0.7709    1.6880    0.0000 H   0  0  0  0  0  0  0  0  0  0  0  0
   -0.2250    1.5569    0.0000 H   0  0  0  0  0  0  0  0  0  0  0  0
    0.3584    0.1486    0.0000 H   0  0  0  0  0  0  0  0  0  0  0  0
   -1.1183    0.8768    0.0000 H   0  0  0  0  0  0  0  0  0  0  0  0
    1.4170   -0.5887    0.0000 H   0  0  0  0  0  0  0  0  0  0  0  0
    2.1576   -0.5887    0.0000 H   0  0  0  0  0  0  0  0  0  0  0  0
    3.3197    0.4534    0.0000 H   0  0  0  0  0  0  0  0  0  0  0  0
    0.4474   -0.9505    0.0000 H   0  0  0  0  0  0  0  0  0  0  0  0
  1  2  1  0  0  0  0
  2  3  1  0  0  0  0
  3  4  1  0  0  0  0
  2  5  1  0  0  0  0
  5  6  1  0  0  0  0
  2  7  1  0  0  0  0
  7  8  2  0  0  0  0
  1  9  1  0  0  0  0
  1 10  1  0  0  0  0
  1 11  1  0  0  0  0
  3 12  1  0  0  0  0
  3 13  1  0  0  0  0
  4 14  1  0  0  0  0
  5 15  1  0  0  0  0
  5 16  1  0  0  0  0
  6 17  1  0  0  0  0
  7 18  1  0  0  0  0
M  END
>  <id_input>
2741

>  <InChIKey>
CBIFNLUPCWCNQT-UHFFFAOYSA-N

>  <substance_name>
3-hydroxy-2-(hydroxymethyl)-2-methylpropanal

>  <casrn>
18516-18-2

>  <Molecular weight>
118.131103515625

>  <guideline>
OECD Guideline 404 (Acute Dermal Irritation / Corrosion)

>  <species>
rabbit

>  <type_of_coverage>
semiocclusive

>  <max_duration(hrs)>
4.0

>  <vehicle>
unchanged (no vehicle)

>  <edema/ erythema score>
0.0

>  <max_score>
0.0

>  <reversibility>
0.0

>  <Outcome>
0

>  <StandardizerResult>
Remove Explicit Hydrogens (ID: RemoveExplicitH)
Clear Stereo (ID: ClearStereo)
Wedge Clean (ID: WedgeClean)
Mesomerize (ID: Mesomerize)
Tautomerize (ID: Tautomerize)
Add Explicit Hydrogens (ID: AddExplicitH)
Neutralize (ID: Neutralize)
Clean 2D (ID: Clean2D)


$$$$

  Mrv1812 02121911042D          

 29 30  0  0  0  0            999 V2000
    1.6624    2.0359    0.0000 C   0  0  0  0  0  0  0  0  0  0  0  0
    0.9479    2.4484    0.0000 O   0  0  0  0  0  0  0  0  0  0  0  0
    0.2335    2.0359    0.0000 C   0  0  0  0  0  0  0  0  0  0  0  0
   -0.4810    2.4484    0.0000 C   0  0  0  0  0  0  0  0  0  0  0  0
   -1.1955    2.0359    0.0000 C   0  0  0  0  0  0  0  0  0  0  0  0
   -1.1955    1.2109    0.0000 C   0  0  0  0  0  0  0  0  0  0  0  0
   -0.4810    0.7984    0.0000 C   0  0  0  0  0  0  0  0  0  0  0  0
   -0.4810   -0.0266    0.0000 O   0  0  0  0  0  0  0  0  0  0  0  0
    0.2335    1.2109    0.0000 C   0  0  0  0  0  0  0  0  0  0  0  0
   -1.9100    0.7984    0.0000 C   0  0  0  0  0  0  0  0  0  0  0  0
   -2.6244    1.2109    0.0000 O   0  0  0  0  0  0  0  0  0  0  0  0
   -1.9100   -0.0266    0.0000 C   0  0  0  0  0  0  0  0  0  0  0  0
   -2.6244   -0.4391    0.0000 C   0  0  0  0  0  0  0  0  0  0  0  0
   -2.6244   -1.2641    0.0000 C   0  0  0  0  0  0  0  0  0  0  0  0
   -1.9100   -1.6766    0.0000 C   0  0  0  0  0  0  0  0  0  0  0  0
   -1.1955   -1.2641    0.0000 C   0  0  0  0  0  0  0  0  0  0  0  0
   -1.1955   -0.4391    0.0000 C   0  0  0  0  0  0  0  0  0  0  0  0
    1.2499    1.3215    0.0000 H   0  0  0  0  0  0  0  0  0  0  0  0
    2.3769    1.6234    0.0000 H   0  0  0  0  0  0  0  0  0  0  0  0
    2.0749    2.7504    0.0000 H   0  0  0  0  0  0  0  0  0  0  0  0
   -0.4810    3.2734    0.0000 H   0  0  0  0  0  0  0  0  0  0  0  0
   -1.9100    2.4484    0.0000 H   0  0  0  0  0  0  0  0  0  0  0  0
    0.2335   -0.4391    0.0000 H   0  0  0  0  0  0  0  0  0  0  0  0
    0.9479    0.7984    0.0000 H   0  0  0  0  0  0  0  0  0  0  0  0
   -3.3389   -0.0266    0.0000 H   0  0  0  0  0  0  0  0  0  0  0  0
   -3.3389   -1.6766    0.0000 H   0  0  0  0  0  0  0  0  0  0  0  0
   -1.9100   -2.5016    0.0000 H   0  0  0  0  0  0  0  0  0  0  0  0
   -0.4810   -1.6766    0.0000 H   0  0  0  0  0  0  0  0  0  0  0  0
   -0.4810   -0.8516    0.0000 H   0  0  0  0  0  0  0  0  0  0  0  0
  1  2  1  0  0  0  0
  2  3  1  0  0  0  0
  4  3  4  0  0  0  0
  5  4  4  0  0  0  0
  6  5  4  0  0  0  0
  7  6  4  0  0  0  0
  7  8  1  0  0  0  0
  9  7  4  0  0  0  0
  6 10  1  0  0  0  0
 10 11  2  0  0  0  0
 10 12  1  0  0  0  0
 13 12  4  0  0  0  0
 14 13  4  0  0  0  0
 15 14  4  0  0  0  0
 16 15  4  0  0  0  0
 17 16  4  0  0  0  0
  3  9  4  0  0  0  0
 12 17  4  0  0  0  0
  1 18  1  0  0  0  0
  1 19  1  0  0  0  0
  1 20  1  0  0  0  0
  4 21  1  0  0  0  0
  5 22  1  0  0  0  0
  8 23  1  0  0  0  0
  9 24  1  0  0  0  0
 13 25  1  0  0  0  0
 14 26  1  0  0  0  0
 15 27  1  0  0  0  0
 16 28  1  0  0  0  0
 17 29  1  0  0  0  0
M  END
>  <id_input>
2403

>  <InChIKey>
DXGLGDHPHMLXJC-UHFFFAOYSA-N

>  <substance_name>
2-benzoyl-5-methoxyphenol

>  <casrn>
131-57-7

>  <Molecular weight>
228.2432861328125

>  <guideline>
OECD Guideline 404 (Acute Dermal Irritation / Corrosion)

>  <species>
rabbit

>  <type_of_coverage>
semiocclusive

>  <max_duration(hrs)>
4.0

>  <vehicle>
unchanged (no vehicle)

>  <edema/ erythema score>
0.0

>  <max_score>
4.0

>  <reversibility>
0.0

>  <Outcome>
0

>  <StandardizerResult>
Remove Explicit Hydrogens (ID: RemoveExplicitH)
Dearomatize (ID: Dearomatize)
Clear Stereo (ID: ClearStereo)
Wedge Clean (ID: WedgeClean)
Mesomerize (ID: Mesomerize)
Tautomerize (ID: Tautomerize)
Aromatize (ID: Aromatize)
Add Explicit Hydrogens (ID: AddExplicitH)
Neutralize (ID: Neutralize)
Clean 2D (ID: Clean2D)


$$$$

  Mrv1812 02121911042D          

 25 24  0  0  0  0            999 V2000
    2.0776   -2.5850    0.0000 O   0  0  0  0  0  0  0  0  0  0  0  0
    2.0776   -1.7600    0.0000 C   0  0  0  0  0  0  0  0  0  0  0  0
    1.3631   -1.3475    0.0000 C   0  0  0  0  0  0  0  0  0  0  0  0
    1.3631   -0.5225    0.0000 N   0  0  0  0  0  0  0  0  0  0  0  0
    0.6487   -0.1100    0.0000 C   0  0  0  0  0  0  0  0  0  0  0  0
    0.6487    0.7150    0.0000 C   0  0  0  0  0  0  0  0  0  0  0  0
   -0.0658    1.1275    0.0000 O   0  0  0  0  0  0  0  0  0  0  0  0
    2.0776   -0.1100    0.0000 C   0  0  0  0  0  0  0  0  0  0  0  0
    2.0776    0.7150    0.0000 C   0  0  0  0  0  0  0  0  0  0  0  0
    2.7921    1.1275    0.0000 O   0  0  0  0  0  0  0  0  0  0  0  0
    1.3631   -2.9975    0.0000 H   0  0  0  0  0  0  0  0  0  0  0  0
    2.9012   -1.7120    0.0000 H   0  0  0  0  0  0  0  0  0  0  0  0
    2.5310   -1.0707    0.0000 H   0  0  0  0  0  0  0  0  0  0  0  0
    0.5395   -1.3954    0.0000 H   0  0  0  0  0  0  0  0  0  0  0  0
    0.9098   -2.0367    0.0000 H   0  0  0  0  0  0  0  0  0  0  0  0
   -0.1749   -0.1579    0.0000 H   0  0  0  0  0  0  0  0  0  0  0  0
    0.1953   -0.7992    0.0000 H   0  0  0  0  0  0  0  0  0  0  0  0
    1.4723    0.7630    0.0000 H   0  0  0  0  0  0  0  0  0  0  0  0
    1.1020    1.4043    0.0000 H   0  0  0  0  0  0  0  0  0  0  0  0
   -0.0658    1.9525    0.0000 H   0  0  0  0  0  0  0  0  0  0  0  0
    2.5310   -0.7992    0.0000 H   0  0  0  0  0  0  0  0  0  0  0  0
    2.9012   -0.1579    0.0000 H   0  0  0  0  0  0  0  0  0  0  0  0
    1.8958    1.5197    0.0000 H   0  0  0  0  0  0  0  0  0  0  0  0
    2.7921    0.3025    0.0000 H   0  0  0  0  0  0  0  0  0  0  0  0
    3.2046    1.8420    0.0000 H   0  0  0  0  0  0  0  0  0  0  0  0
  1  2  1  0  0  0  0
  2  3  1  0  0  0  0
  3  4  1  0  0  0  0
  4  5  1  0  0  0  0
  5  6  1  0  0  0  0
  6  7  1  0  0  0  0
  4  8  1  0  0  0  0
  8  9  1  0  0  0  0
  9 10  1  0  0  0  0
  1 11  1  0  0  0  0
  2 12  1  0  0  0  0
  2 13  1  0  0  0  0
  3 14  1  0  0  0  0
  3 15  1  0  0  0  0
  5 16  1  0  0  0  0
  5 17  1  0  0  0  0
  6 18  1  0  0  0  0
  6 19  1  0  0  0  0
  7 20  1  0  0  0  0
  8 21  1  0  0  0  0
  8 22  1  0  0  0  0
  9 23  1  0  0  0  0
  9 24  1  0  0  0  0
 10 25  1  0  0  0  0
M  END
>  <id_input>
2387

>  <InChIKey>
GSEJCLTVZPLZKY-UHFFFAOYSA-N

>  <substance_name>
2-[bis(2-hydroxyethyl)amino]ethan-1-ol

>  <casrn>
102-71-6

>  <Molecular weight>
149.18820190429688

>  <guideline>
OECD Guideline 404 (Acute Dermal Irritation / Corrosion)

>  <species>
rabbit

>  <type_of_coverage>
occlusive

>  <max_duration(hrs)>
4.0

>  <vehicle>
unchanged (no vehicle)

>  <edema/ erythema score>
0.0

>  <max_score>
4.0

>  <reversibility>
0.0

>  <Outcome>
0

>  <StandardizerResult>
Remove Explicit Hydrogens (ID: RemoveExplicitH)
Clear Stereo (ID: ClearStereo)
Wedge Clean (ID: WedgeClean)
Mesomerize (ID: Mesomerize)
Tautomerize (ID: Tautomerize)
Add Explicit Hydrogens (ID: AddExplicitH)
Neutralize (ID: Neutralize)
Clean 2D (ID: Clean2D)


$$$$

  Mrv1812 02121911042D          

 23 23  0  0  0  0            999 V2000
    2.2107    0.1614    0.0000 C   0  0  0  0  0  0  0  0  0  0  0  0
    1.4962    0.5739    0.0000 N   0  0  0  0  0  0  0  0  0  0  0  0
    1.4962    1.3989    0.0000 C   0  0  0  0  0  0  0  0  0  0  0  0
    0.7817    0.1614    0.0000 C   0  0  0  0  0  0  0  0  0  0  0  0
    0.0673    0.5739    0.0000 C   0  0  0  0  0  0  0  0  0  0  0  0
   -0.6472    0.1614    0.0000 C   0  0  0  0  0  0  0  0  0  0  0  0
   -0.6472   -0.6636    0.0000 C   0  0  0  0  0  0  0  0  0  0  0  0
   -1.3617   -1.0761    0.0000 C   0  0  0  0  0  0  0  0  0  0  0  0
    0.0673   -1.0761    0.0000 C   0  0  0  0  0  0  0  0  0  0  0  0
    0.7817   -0.6636    0.0000 C   0  0  0  0  0  0  0  0  0  0  0  0
    1.7982   -0.5531    0.0000 H   0  0  0  0  0  0  0  0  0  0  0  0
    2.9252   -0.2511    0.0000 H   0  0  0  0  0  0  0  0  0  0  0  0
    2.6232    0.8759    0.0000 H   0  0  0  0  0  0  0  0  0  0  0  0
    2.3212    1.3989    0.0000 H   0  0  0  0  0  0  0  0  0  0  0  0
    1.4962    2.2239    0.0000 H   0  0  0  0  0  0  0  0  0  0  0  0
    0.6712    1.3989    0.0000 H   0  0  0  0  0  0  0  0  0  0  0  0
    0.0673    1.3989    0.0000 H   0  0  0  0  0  0  0  0  0  0  0  0
   -1.3617    0.5739    0.0000 H   0  0  0  0  0  0  0  0  0  0  0  0
   -1.7742   -0.3616    0.0000 H   0  0  0  0  0  0  0  0  0  0  0  0
   -2.0761   -1.4886    0.0000 H   0  0  0  0  0  0  0  0  0  0  0  0
   -0.9492   -1.7906    0.0000 H   0  0  0  0  0  0  0  0  0  0  0  0
    0.0673   -1.9011    0.0000 H   0  0  0  0  0  0  0  0  0  0  0  0
    1.4962   -1.0761    0.0000 H   0  0  0  0  0  0  0  0  0  0  0  0
  1  2  1  0  0  0  0
  2  3  1  0  0  0  0
  2  4  1  0  0  0  0
  5  4  4  0  0  0  0
  6  5  4  0  0  0  0
  7  6  4  0  0  0  0
  7  8  1  0  0  0  0
  9  7  4  0  0  0  0
 10  9  4  0  0  0  0
  4 10  4  0  0  0  0
  1 11  1  0  0  0  0
  1 12  1  0  0  0  0
  1 13  1  0  0  0  0
  3 14  1  0  0  0  0
  3 15  1  0  0  0  0
  3 16  1  0  0  0  0
  5 17  1  0  0  0  0
  6 18  1  0  0  0  0
  8 19  1  0  0  0  0
  8 20  1  0  0  0  0
  8 21  1  0  0  0  0
  9 22  1  0  0  0  0
 10 23  1  0  0  0  0
M  END
>  <id_input>
3392

>  <InChIKey>
GYVGXEWAOAAJEU-UHFFFAOYSA-N

>  <substance_name>
N,N,4-trimethylaniline

>  <casrn>
99-97-8

>  <Molecular weight>
135.2062225341797

>  <guideline>
OECD Guideline 404 (Acute Dermal Irritation / Corrosion)

>  <species>
rabbit

>  <type_of_coverage>
occlusive

>  <max_duration(hrs)>
4.0

>  <vehicle>
unchanged (no vehicle)

>  <edema/ erythema score>
1.0

>  <max_score>
3.0

>  <reversibility>
0.0

>  <Outcome>
0

>  <StandardizerResult>
Remove Explicit Hydrogens (ID: RemoveExplicitH)
Dearomatize (ID: Dearomatize)
Clear Stereo (ID: ClearStereo)
Wedge Clean (ID: WedgeClean)
Mesomerize (ID: Mesomerize)
Tautomerize (ID: Tautomerize)
Aromatize (ID: Aromatize)
Add Explicit Hydrogens (ID: AddExplicitH)
Neutralize (ID: Neutralize)
Clean 2D (ID: Clean2D)


$$$$

  Mrv1812 02121911042D          

 35 34  0  0  0  0            999 V2000
    3.4294    2.0531    0.0000 C   0  0  0  0  0  0  0  0  0  0  0  0
    3.4294    1.2281    0.0000 C   0  0  0  0  0  0  0  0  0  0  0  0
    4.1438    0.8156    0.0000 C   0  0  0  0  0  0  0  0  0  0  0  0
    4.8583    1.2281    0.0000 Cl  0  0  0  0  0  0  0  0  0  0  0  0
    2.7149    0.8156    0.0000 O   0  0  0  0  0  0  0  0  0  0  0  0
    2.0004    1.2281    0.0000 P   0  0  0  0  0  0  0  0  0  0  0  0
    2.4129    1.9425    0.0000 O   0  0  0  0  0  0  0  0  0  0  0  0
    1.2860    1.6406    0.0000 O   0  0  0  0  0  0  0  0  0  0  0  0
    1.2860    2.4656    0.0000 C   0  0  0  0  0  0  0  0  0  0  0  0
    0.5715    2.8781    0.0000 C   0  0  0  0  0  0  0  0  0  0  0  0
    2.0004    2.8781    0.0000 C   0  0  0  0  0  0  0  0  0  0  0  0
    2.0004    3.7031    0.0000 Cl  0  0  0  0  0  0  0  0  0  0  0  0
    1.5879    0.5136    0.0000 O   0  0  0  0  0  0  0  0  0  0  0  0
    0.7629    0.5136    0.0000 C   0  0  0  0  0  0  0  0  0  0  0  0
    0.3504    1.2281    0.0000 C   0  0  0  0  0  0  0  0  0  0  0  0
    0.3504   -0.2009    0.0000 C   0  0  0  0  0  0  0  0  0  0  0  0
   -0.4746   -0.2009    0.0000 Cl  0  0  0  0  0  0  0  0  0  0  0  0
    4.2544    2.0531    0.0000 H   0  0  0  0  0  0  0  0  0  0  0  0
    3.4294    2.8781    0.0000 H   0  0  0  0  0  0  0  0  0  0  0  0
    2.6044    2.0531    0.0000 H   0  0  0  0  0  0  0  0  0  0  0  0
    4.1438    1.6406    0.0000 H   0  0  0  0  0  0  0  0  0  0  0  0
    3.7736    0.0783    0.0000 H   0  0  0  0  0  0  0  0  0  0  0  0
    4.5141    0.0783    0.0000 H   0  0  0  0  0  0  0  0  0  0  0  0
    0.5715    2.0531    0.0000 H   0  0  0  0  0  0  0  0  0  0  0  0
    1.1549    3.4614    0.0000 H   0  0  0  0  0  0  0  0  0  0  0  0
    0.1590    3.5925    0.0000 H   0  0  0  0  0  0  0  0  0  0  0  0
   -0.2254    2.6645    0.0000 H   0  0  0  0  0  0  0  0  0  0  0  0
    2.4538    2.1888    0.0000 H   0  0  0  0  0  0  0  0  0  0  0  0
    2.8240    2.8301    0.0000 H   0  0  0  0  0  0  0  0  0  0  0  0
    1.1754    1.2281    0.0000 H   0  0  0  0  0  0  0  0  0  0  0  0
   -0.1935    1.8483    0.0000 H   0  0  0  0  0  0  0  0  0  0  0  0
   -0.4675    1.1204    0.0000 H   0  0  0  0  0  0  0  0  0  0  0  0
   -0.0145    0.4882    0.0000 H   0  0  0  0  0  0  0  0  0  0  0  0
    0.3984   -1.0245    0.0000 H   0  0  0  0  0  0  0  0  0  0  0  0
    1.0397   -0.6542    0.0000 H   0  0  0  0  0  0  0  0  0  0  0  0
  1  2  1  0  0  0  0
  2  3  1  0  0  0  0
  3  4  1  0  0  0  0
  2  5  1  0  0  0  0
  5  6  1  0  0  0  0
  6  7  2  0  0  0  0
  6  8  1  0  0  0  0
  8  9  1  0  0  0  0
  9 10  1  0  0  0  0
  9 11  1  0  0  0  0
 11 12  1  0  0  0  0
  6 13  1  0  0  0  0
 13 14  1  0  0  0  0
 14 15  1  0  0  0  0
 14 16  1  0  0  0  0
 16 17  1  0  0  0  0
  1 18  1  0  0  0  0
  1 19  1  0  0  0  0
  1 20  1  0  0  0  0
  2 21  1  0  0  0  0
  3 22  1  0  0  0  0
  3 23  1  0  0  0  0
  9 24  1  0  0  0  0
 10 25  1  0  0  0  0
 10 26  1  0  0  0  0
 10 27  1  0  0  0  0
 11 28  1  0  0  0  0
 11 29  1  0  0  0  0
 14 30  1  0  0  0  0
 15 31  1  0  0  0  0
 15 32  1  0  0  0  0
 15 33  1  0  0  0  0
 16 34  1  0  0  0  0
 16 35  1  0  0  0  0
M  END
>  <id_input>
5171

>  <InChIKey>
KVMPUXDNESXNOH-UHFFFAOYSA-N

>  <substance_name>
tris(2-chloro-1-methylethyl) phosphate

>  <casrn>
13674-84-5

>  <Molecular weight>
327.569580078125

>  <guideline>
OECD Guideline 404 (Acute Dermal Irritation / Corrosion)

>  <species>
rabbit

>  <type_of_coverage>
semiocclusive

>  <max_duration(hrs)>
4.0

>  <vehicle>
water

>  <edema/ erythema score>
1.1

>  <max_score>
8.0

>  <reversibility>
0.0

>  <Outcome>
0

>  <StandardizerResult>
Remove Explicit Hydrogens (ID: RemoveExplicitH)
Clear Stereo (ID: ClearStereo)
Wedge Clean (ID: WedgeClean)
Mesomerize (ID: Mesomerize)
Tautomerize (ID: Tautomerize)
Add Explicit Hydrogens (ID: AddExplicitH)
Neutralize (ID: Neutralize)
Clean 2D (ID: Clean2D)


$$$$

  Mrv1812 02121911042D          

 54 54  0  0  0  0            999 V2000
    2.6399    2.2894    0.0000 C   0  0  0  0  0  0  0  0  0  0  0  0
    2.6399    1.4644    0.0000 Si  0  0  0  0  0  4  0  0  0  0  0  0
    1.8149    1.4644    0.0000 C   0  0  0  0  0  0  0  0  0  0  0  0
    3.4649    1.4644    0.0000 C   0  0  0  0  0  0  0  0  0  0  0  0
    2.6399    0.6394    0.0000 O   0  0  0  0  0  0  0  0  0  0  0  0
    1.9254    0.2269    0.0000 Si  0  0  0  0  0  4  0  0  0  0  0  0
    1.5129    0.9413    0.0000 O   0  0  0  0  0  0  0  0  0  0  0  0
    0.6879    0.9413    0.0000 Si  0  0  0  0  0  4  0  0  0  0  0  0
    0.6879    1.7663    0.0000 C   0  0  0  0  0  0  0  0  0  0  0  0
    0.2030    0.2739    0.0000 C   0  0  0  0  0  0  0  0  0  0  0  0
   -0.1371    0.9413    0.0000 C   0  0  0  0  0  0  0  0  0  0  0  0
    2.3379   -0.4876    0.0000 O   0  0  0  0  0  0  0  0  0  0  0  0
    3.1629   -0.4876    0.0000 Si  0  0  0  0  0  4  0  0  0  0  0  0
    3.1629   -1.3126    0.0000 C   0  0  0  0  0  0  0  0  0  0  0  0
    3.1629    0.3374    0.0000 C   0  0  0  0  0  0  0  0  0  0  0  0
    3.9879   -0.4876    0.0000 C   0  0  0  0  0  0  0  0  0  0  0  0
    1.2109   -0.1856    0.0000 C   0  0  0  0  0  0  0  0  0  0  0  0
    0.4965    0.2269    0.0000 C   0  0  0  0  0  0  0  0  0  0  0  0
   -0.2180   -0.1856    0.0000 C   0  0  0  0  0  0  0  0  0  0  0  0
   -0.2180   -1.0106    0.0000 C   0  0  0  0  0  0  0  0  0  0  0  0
    0.4965   -1.4231    0.0000 C   0  0  0  0  0  0  0  0  0  0  0  0
    1.2109   -1.0106    0.0000 C   0  0  0  0  0  0  0  0  0  0  0  0
    3.4649    2.2894    0.0000 H   0  0  0  0  0  0  0  0  0  0  0  0
    2.6399    3.1144    0.0000 H   0  0  0  0  0  0  0  0  0  0  0  0
    1.8149    2.2894    0.0000 H   0  0  0  0  0  0  0  0  0  0  0  0
    1.1829    1.9947    0.0000 H   0  0  0  0  0  0  0  0  0  0  0  0
    1.0024    1.3211    0.0000 H   0  0  0  0  0  0  0  0  0  0  0  0
    2.2274    0.7499    0.0000 H   0  0  0  0  0  0  0  0  0  0  0  0
    3.1492    0.7022    0.0000 H   0  0  0  0  0  0  0  0  0  0  0  0
    4.0483    0.8810    0.0000 H   0  0  0  0  0  0  0  0  0  0  0  0
    4.2271    1.7801    0.0000 H   0  0  0  0  0  0  0  0  0  0  0  0
    0.7444    2.5894    0.0000 H   0  0  0  0  0  0  0  0  0  0  0  0
   -0.0070    2.2110    0.0000 H   0  0  0  0  0  0  0  0  0  0  0  0
   -0.0358    1.3703    0.0000 H   0  0  0  0  0  0  0  0  0  0  0  0
   -0.4697    0.7515    0.0000 H   0  0  0  0  0  0  0  0  0  0  0  0
   -0.6145    0.3851    0.0000 H   0  0  0  0  0  0  0  0  0  0  0  0
   -0.5728   -0.0066    0.0000 H   0  0  0  0  0  0  0  0  0  0  0  0
   -0.4188    1.7168    0.0000 H   0  0  0  0  0  0  0  0  0  0  0  0
   -0.7978    1.4354    0.0000 H   0  0  0  0  0  0  0  0  0  0  0  0
   -0.9605    0.9922    0.0000 H   0  0  0  0  0  0  0  0  0  0  0  0
    2.3379   -1.3126    0.0000 H   0  0  0  0  0  0  0  0  0  0  0  0
    3.1629   -2.1376    0.0000 H   0  0  0  0  0  0  0  0  0  0  0  0
    3.9879   -1.3126    0.0000 H   0  0  0  0  0  0  0  0  0  0  0  0
    3.9422    0.0666    0.0000 H   0  0  0  0  0  0  0  0  0  0  0  0
    3.9315    0.6373    0.0000 H   0  0  0  0  0  0  0  0  0  0  0  0
    2.4484   -0.0751    0.0000 H   0  0  0  0  0  0  0  0  0  0  0  0
    4.5832   -1.0588    0.0000 H   0  0  0  0  0  0  0  0  0  0  0  0
    4.8122   -0.4537    0.0000 H   0  0  0  0  0  0  0  0  0  0  0  0
    4.5342    0.1306    0.0000 H   0  0  0  0  0  0  0  0  0  0  0  0
    0.4965   -0.5981    0.0000 H   0  0  0  0  0  0  0  0  0  0  0  0
   -0.9205   -0.6181    0.0000 H   0  0  0  0  0  0  0  0  0  0  0  0
   -0.6254   -1.7280    0.0000 H   0  0  0  0  0  0  0  0  0  0  0  0
    0.4965   -2.2481    0.0000 H   0  0  0  0  0  0  0  0  0  0  0  0
    1.9254   -1.4231    0.0000 H   0  0  0  0  0  0  0  0  0  0  0  0
  1  2  1  0  0  0  0
  2  3  1  0  0  0  0
  2  4  1  0  0  0  0
  2  5  1  0  0  0  0
  5  6  1  0  0  0  0
  6  7  1  0  0  0  0
  7  8  1  0  0  0  0
  8  9  1  0  0  0  0
  8 10  1  0  0  0  0
  8 11  1  0  0  0  0
  6 12  1  0  0  0  0
 12 13  1  0  0  0  0
 13 14  1  0  0  0  0
 13 15  1  0  0  0  0
 13 16  1  0  0  0  0
  6 17  1  0  0  0  0
 18 17  4  0  0  0  0
 19 18  4  0  0  0  0
 20 19  4  0  0  0  0
 21 20  4  0  0  0  0
 22 21  4  0  0  0  0
 17 22  4  0  0  0  0
  1 23  1  0  0  0  0
  1 24  1  0  0  0  0
  1 25  1  0  0  0  0
  3 26  1  0  0  0  0
  3 27  1  0  0  0  0
  3 28  1  0  0  0  0
  4 29  1  0  0  0  0
  4 30  1  0  0  0  0
  4 31  1  0  0  0  0
  9 32  1  0  0  0  0
  9 33  1  0  0  0  0
  9 34  1  0  0  0  0
 10 35  1  0  0  0  0
 10 36  1  0  0  0  0
 10 37  1  0  0  0  0
 11 38  1  0  0  0  0
 11 39  1  0  0  0  0
 11 40  1  0  0  0  0
 14 41  1  0  0  0  0
 14 42  1  0  0  0  0
 14 43  1  0  0  0  0
 15 44  1  0  0  0  0
 15 45  1  0  0  0  0
 15 46  1  0  0  0  0
 16 47  1  0  0  0  0
 16 48  1  0  0  0  0
 16 49  1  0  0  0  0
 18 50  1  0  0  0  0
 19 51  1  0  0  0  0
 20 52  1  0  0  0  0
 21 53  1  0  0  0  0
 22 54  1  0  0  0  0
M  END
>  <id_input>
2083

>  <InChIKey>
LINXHFKHZLOLEI-UHFFFAOYSA-N

>  <substance_name>
2,2,6,6-tetramethyl-4-phenyl-4-[(trimethylsilyl)oxy]-3,5-dioxa-2,4,6-trisilaheptane

>  <casrn>
2116-84-9

>  <Molecular weight>
372.7547912597656

>  <guideline>
OECD Guideline 404 (Acute Dermal Irritation / Corrosion)

>  <species>
rabbit

>  <type_of_coverage>
semiocclusive

>  <max_duration(hrs)>
4.0

>  <vehicle>
unchanged (no vehicle)

>  <edema/ erythema score>
0.0

>  <max_score>
4.0

>  <reversibility>
0.0

>  <Outcome>
0

>  <StandardizerResult>
Remove Explicit Hydrogens (ID: RemoveExplicitH)
Dearomatize (ID: Dearomatize)
Clear Stereo (ID: ClearStereo)
Wedge Clean (ID: WedgeClean)
Mesomerize (ID: Mesomerize)
Tautomerize (ID: Tautomerize)
Aromatize (ID: Aromatize)
Add Explicit Hydrogens (ID: AddExplicitH)
Neutralize (ID: Neutralize)
Clean 2D (ID: Clean2D)


$$$$

  Mrv1812 02121911042D          

 22 22  0  0  0  0            999 V2000
    1.7495    1.0689    0.0000 C   0  0  0  0  0  0  0  0  0  0  0  0
    1.0351    1.4814    0.0000 O   0  0  0  0  0  0  0  0  0  0  0  0
    0.3206    1.0689    0.0000 C   0  0  0  0  0  0  0  0  0  0  0  0
   -0.3939    1.4814    0.0000 C   0  0  0  0  0  0  0  0  0  0  0  0
   -1.1084    1.0689    0.0000 C   0  0  0  0  0  0  0  0  0  0  0  0
   -1.1084    0.2439    0.0000 C   0  0  0  0  0  0  0  0  0  0  0  0
   -1.8228   -0.1686    0.0000 O   0  0  0  0  0  0  0  0  0  0  0  0
   -1.8228   -0.9936    0.0000 C   0  0  0  0  0  0  0  0  0  0  0  0
   -0.3939   -0.1686    0.0000 C   0  0  0  0  0  0  0  0  0  0  0  0
   -0.3939   -0.9936    0.0000 N   0  0  0  0  0  0  0  0  0  0  0  0
    0.3206    0.2439    0.0000 C   0  0  0  0  0  0  0  0  0  0  0  0
    1.3370    0.3545    0.0000 H   0  0  0  0  0  0  0  0  0  0  0  0
    2.4640    0.6564    0.0000 H   0  0  0  0  0  0  0  0  0  0  0  0
    2.1620    1.7834    0.0000 H   0  0  0  0  0  0  0  0  0  0  0  0
   -0.3939    2.3064    0.0000 H   0  0  0  0  0  0  0  0  0  0  0  0
   -1.8228    1.4814    0.0000 H   0  0  0  0  0  0  0  0  0  0  0  0
   -2.6478   -0.9936    0.0000 H   0  0  0  0  0  0  0  0  0  0  0  0
   -1.8228   -1.8186    0.0000 H   0  0  0  0  0  0  0  0  0  0  0  0
   -0.9978   -0.9936    0.0000 H   0  0  0  0  0  0  0  0  0  0  0  0
   -0.1804   -1.7905    0.0000 H   0  0  0  0  0  0  0  0  0  0  0  0
    0.4030   -1.2071    0.0000 H   0  0  0  0  0  0  0  0  0  0  0  0
    1.0351   -0.1686    0.0000 H   0  0  0  0  0  0  0  0  0  0  0  0
  1  2  1  0  0  0  0
  2  3  1  0  0  0  0
  4  3  4  0  0  0  0
  5  4  4  0  0  0  0
  6  5  4  0  0  0  0
  6  7  1  0  0  0  0
  7  8  1  0  0  0  0
  9  6  4  0  0  0  0
  9 10  1  0  0  0  0
 11  9  4  0  0  0  0
  3 11  4  0  0  0  0
  1 12  1  0  0  0  0
  1 13  1  0  0  0  0
  1 14  1  0  0  0  0
  4 15  1  0  0  0  0
  5 16  1  0  0  0  0
  8 17  1  0  0  0  0
  8 18  1  0  0  0  0
  8 19  1  0  0  0  0
 10 20  1  0  0  0  0
 10 21  1  0  0  0  0
 11 22  1  0  0  0  0
M  END
>  <id_input>
2136

>  <InChIKey>
NAZDVUBIEPVUKE-UHFFFAOYSA-N

>  <substance_name>
2,5-dimethoxyaniline

>  <casrn>
102-56-7

>  <Molecular weight>
153.17843627929688

>  <guideline>
OECD Guideline 404 (Acute Dermal Irritation / Corrosion)

>  <species>
rabbit

>  <type_of_coverage>
semiocclusive

>  <max_duration(hrs)>
4.0

>  <vehicle>
other: Polyethyleneglycole 400

>  <edema/ erythema score>
0.0

>  <max_score>
4.0

>  <reversibility>
0.0

>  <Outcome>
0

>  <StandardizerResult>
Remove Explicit Hydrogens (ID: RemoveExplicitH)
Dearomatize (ID: Dearomatize)
Clear Stereo (ID: ClearStereo)
Wedge Clean (ID: WedgeClean)
Mesomerize (ID: Mesomerize)
Tautomerize (ID: Tautomerize)
Aromatize (ID: Aromatize)
Add Explicit Hydrogens (ID: AddExplicitH)
Neutralize (ID: Neutralize)
Clean 2D (ID: Clean2D)


$$$$

  Mrv1812 02121911042D          

 88 88  0  0  0  0            999 V2000
   -5.1404    1.8930    0.0000 C   0  0  0  0  0  0  0  0  0  0  0  0
   -4.4259    1.4805    0.0000 C   0  0  0  0  0  0  0  0  0  0  0  0
   -3.7115    1.8930    0.0000 C   0  0  0  0  0  0  0  0  0  0  0  0
   -2.9970    1.4805    0.0000 C   0  0  0  0  0  0  0  0  0  0  0  0
   -2.2825    1.8930    0.0000 C   0  0  0  0  0  0  0  0  0  0  0  0
   -1.5681    1.4805    0.0000 C   0  0  0  0  0  0  0  0  0  0  0  0
   -0.8536    1.8930    0.0000 C   0  0  0  0  0  0  0  0  0  0  0  0
   -0.1391    1.4805    0.0000 C   0  0  0  0  0  0  0  0  0  0  0  0
    0.5754    1.8930    0.0000 C   0  0  0  0  0  0  0  0  0  0  0  0
    1.2898    1.4805    0.0000 C   0  0  0  0  0  0  0  0  0  0  0  0
    2.0043    1.8930    0.0000 C   0  0  0  0  0  0  0  0  0  0  0  0
    2.7188    1.4805    0.0000 C   0  0  0  0  0  0  0  0  0  0  0  0
    3.4332    1.8930    0.0000 C   0  0  0  0  0  0  0  0  0  0  0  0
    4.1477    1.4805    0.0000 C   0  0  0  0  0  0  0  0  0  0  0  0
    4.8622    1.8930    0.0000 C   0  0  0  0  0  0  0  0  0  0  0  0
    5.5767    1.4805    0.0000 C   0  0  0  0  0  0  0  0  0  0  0  0
    6.2911    1.8930    0.0000 O   0  0  0  0  0  0  0  0  0  0  0  0
    7.0056    1.4805    0.0000 C   0  0  0  0  0  0  0  0  0  0  0  0
    7.0056    0.6555    0.0000 O   0  0  0  0  0  0  0  0  0  0  0  0
    7.7201    1.8930    0.0000 C   0  0  0  0  0  0  0  0  0  0  0  0
    8.4345    1.4805    0.0000 C   0  0  0  0  0  0  0  0  0  0  0  0
    9.1490    1.8930    0.0000 C   0  0  0  0  0  0  0  0  0  0  0  0
    9.1490    2.7180    0.0000 C   0  0  0  0  0  0  0  0  0  0  0  0
    9.8635    3.1305    0.0000 O   0  0  0  0  0  0  0  0  0  0  0  0
    8.4345    3.1305    0.0000 C   0  0  0  0  0  0  0  0  0  0  0  0
    7.7201    2.7180    0.0000 C   0  0  0  0  0  0  0  0  0  0  0  0
    8.4345    3.9555    0.0000 C   0  0  0  0  0  0  0  0  0  0  0  0
    8.4345    4.7805    0.0000 C   0  0  0  0  0  0  0  0  0  0  0  0
    7.6095    3.9555    0.0000 C   0  0  0  0  0  0  0  0  0  0  0  0
    9.2595    3.9555    0.0000 C   0  0  0  0  0  0  0  0  0  0  0  0
    9.8635    1.4805    0.0000 C   0  0  0  0  0  0  0  0  0  0  0  0
   10.5779    1.0680    0.0000 C   0  0  0  0  0  0  0  0  0  0  0  0
   10.2760    2.1949    0.0000 C   0  0  0  0  0  0  0  0  0  0  0  0
    9.4510    0.7660    0.0000 C   0  0  0  0  0  0  0  0  0  0  0  0
   -4.7279    2.6074    0.0000 H   0  0  0  0  0  0  0  0  0  0  0  0
   -5.8549    2.3055    0.0000 H   0  0  0  0  0  0  0  0  0  0  0  0
   -5.5529    1.1785    0.0000 H   0  0  0  0  0  0  0  0  0  0  0  0
   -4.7962    0.7432    0.0000 H   0  0  0  0  0  0  0  0  0  0  0  0
   -4.0557    0.7432    0.0000 H   0  0  0  0  0  0  0  0  0  0  0  0
   -3.3412    2.6302    0.0000 H   0  0  0  0  0  0  0  0  0  0  0  0
   -4.0817    2.6302    0.0000 H   0  0  0  0  0  0  0  0  0  0  0  0
   -3.3673    0.7432    0.0000 H   0  0  0  0  0  0  0  0  0  0  0  0
   -2.6267    0.7432    0.0000 H   0  0  0  0  0  0  0  0  0  0  0  0
   -1.9123    2.6302    0.0000 H   0  0  0  0  0  0  0  0  0  0  0  0
   -2.6528    2.6302    0.0000 H   0  0  0  0  0  0  0  0  0  0  0  0
   -1.9383    0.7432    0.0000 H   0  0  0  0  0  0  0  0  0  0  0  0
   -1.1978    0.7432    0.0000 H   0  0  0  0  0  0  0  0  0  0  0  0
   -0.4833    2.6302    0.0000 H   0  0  0  0  0  0  0  0  0  0  0  0
   -1.2238    2.6302    0.0000 H   0  0  0  0  0  0  0  0  0  0  0  0
   -0.5094    0.7432    0.0000 H   0  0  0  0  0  0  0  0  0  0  0  0
    0.2311    0.7432    0.0000 H   0  0  0  0  0  0  0  0  0  0  0  0
    0.9456    2.6302    0.0000 H   0  0  0  0  0  0  0  0  0  0  0  0
    0.2051    2.6302    0.0000 H   0  0  0  0  0  0  0  0  0  0  0  0
    0.9196    0.7432    0.0000 H   0  0  0  0  0  0  0  0  0  0  0  0
    1.6601    0.7432    0.0000 H   0  0  0  0  0  0  0  0  0  0  0  0
    2.3746    2.6302    0.0000 H   0  0  0  0  0  0  0  0  0  0  0  0
    1.6340    2.6302    0.0000 H   0  0  0  0  0  0  0  0  0  0  0  0
    2.3485    0.7432    0.0000 H   0  0  0  0  0  0  0  0  0  0  0  0
    3.0890    0.7432    0.0000 H   0  0  0  0  0  0  0  0  0  0  0  0
    3.8035    2.6302    0.0000 H   0  0  0  0  0  0  0  0  0  0  0  0
    3.0630    2.6302    0.0000 H   0  0  0  0  0  0  0  0  0  0  0  0
    3.7774    0.7432    0.0000 H   0  0  0  0  0  0  0  0  0  0  0  0
    4.5180    0.7432    0.0000 H   0  0  0  0  0  0  0  0  0  0  0  0
    5.2324    2.6302    0.0000 H   0  0  0  0  0  0  0  0  0  0  0  0
    4.4919    2.6302    0.0000 H   0  0  0  0  0  0  0  0  0  0  0  0
    5.2064    0.7432    0.0000 H   0  0  0  0  0  0  0  0  0  0  0  0
    5.9469    0.7432    0.0000 H   0  0  0  0  0  0  0  0  0  0  0  0
    8.4345    0.6555    0.0000 H   0  0  0  0  0  0  0  0  0  0  0  0
   10.5779    2.7180    0.0000 H   0  0  0  0  0  0  0  0  0  0  0  0
    7.0056    3.1305    0.0000 H   0  0  0  0  0  0  0  0  0  0  0  0
    9.2595    4.7805    0.0000 H   0  0  0  0  0  0  0  0  0  0  0  0
    8.4345    5.6055    0.0000 H   0  0  0  0  0  0  0  0  0  0  0  0
    7.6095    4.7805    0.0000 H   0  0  0  0  0  0  0  0  0  0  0  0
    6.8473    4.2712    0.0000 H   0  0  0  0  0  0  0  0  0  0  0  0
    7.0262    3.3721    0.0000 H   0  0  0  0  0  0  0  0  0  0  0  0
    7.9252    3.1933    0.0000 H   0  0  0  0  0  0  0  0  0  0  0  0
    8.9438    3.1933    0.0000 H   0  0  0  0  0  0  0  0  0  0  0  0
    9.8429    3.3721    0.0000 H   0  0  0  0  0  0  0  0  0  0  0  0
   10.0217    4.2712    0.0000 H   0  0  0  0  0  0  0  0  0  0  0  0
   10.1654    0.3535    0.0000 H   0  0  0  0  0  0  0  0  0  0  0  0
   11.2924    0.6555    0.0000 H   0  0  0  0  0  0  0  0  0  0  0  0
   10.9904    1.7824    0.0000 H   0  0  0  0  0  0  0  0  0  0  0  0
    9.7457    2.8269    0.0000 H   0  0  0  0  0  0  0  0  0  0  0  0
    9.4635    2.3382    0.0000 H   0  0  0  0  0  0  0  0  0  0  0  0
   11.0729    2.4085    0.0000 H   0  0  0  0  0  0  0  0  0  0  0  0
    8.9487    1.4205    0.0000 H   0  0  0  0  0  0  0  0  0  0  0  0
    8.6541    0.5525    0.0000 H   0  0  0  0  0  0  0  0  0  0  0  0
    9.3433   -0.0519    0.0000 H   0  0  0  0  0  0  0  0  0  0  0  0
  1  2  1  0  0  0  0
  2  3  1  0  0  0  0
  3  4  1  0  0  0  0
  4  5  1  0  0  0  0
  5  6  1  0  0  0  0
  6  7  1  0  0  0  0
  7  8  1  0  0  0  0
  8  9  1  0  0  0  0
  9 10  1  0  0  0  0
 10 11  1  0  0  0  0
 11 12  1  0  0  0  0
 12 13  1  0  0  0  0
 13 14  1  0  0  0  0
 14 15  1  0  0  0  0
 15 16  1  0  0  0  0
 16 17  1  0  0  0  0
 17 18  1  0  0  0  0
 18 19  2  0  0  0  0
 18 20  1  0  0  0  0
 21 20  4  0  0  0  0
 22 21  4  0  0  0  0
 23 22  4  0  0  0  0
 23 24  1  0  0  0  0
 25 23  4  0  0  0  0
 26 25  4  0  0  0  0
 25 27  1  0  0  0  0
 27 28  1  0  0  0  0
 27 29  1  0  0  0  0
 27 30  1  0  0  0  0
 22 31  1  0  0  0  0
 31 32  1  0  0  0  0
 31 33  1  0  0  0  0
 31 34  1  0  0  0  0
 20 26  4  0  0  0  0
  1 35  1  0  0  0  0
  1 36  1  0  0  0  0
  1 37  1  0  0  0  0
  2 38  1  0  0  0  0
  2 39  1  0  0  0  0
  3 40  1  0  0  0  0
  3 41  1  0  0  0  0
  4 42  1  0  0  0  0
  4 43  1  0  0  0  0
  5 44  1  0  0  0  0
  5 45  1  0  0  0  0
  6 46  1  0  0  0  0
  6 47  1  0  0  0  0
  7 48  1  0  0  0  0
  7 49  1  0  0  0  0
  8 50  1  0  0  0  0
  8 51  1  0  0  0  0
  9 52  1  0  0  0  0
  9 53  1  0  0  0  0
 10 54  1  0  0  0  0
 10 55  1  0  0  0  0
 11 56  1  0  0  0  0
 11 57  1  0  0  0  0
 12 58  1  0  0  0  0
 12 59  1  0  0  0  0
 13 60  1  0  0  0  0
 13 61  1  0  0  0  0
 14 62  1  0  0  0  0
 14 63  1  0  0  0  0
 15 64  1  0  0  0  0
 15 65  1  0  0  0  0
 16 66  1  0  0  0  0
 16 67  1  0  0  0  0
 21 68  1  0  0  0  0
 24 69  1  0  0  0  0
 26 70  1  0  0  0  0
 28 71  1  0  0  0  0
 28 72  1  0  0  0  0
 28 73  1  0  0  0  0
 29 74  1  0  0  0  0
 29 75  1  0  0  0  0
 29 76  1  0  0  0  0
 30 77  1  0  0  0  0
 30 78  1  0  0  0  0
 30 79  1  0  0  0  0
 32 80  1  0  0  0  0
 32 81  1  0  0  0  0
 32 82  1  0  0  0  0
 33 83  1  0  0  0  0
 33 84  1  0  0  0  0
 33 85  1  0  0  0  0
 34 86  1  0  0  0  0
 34 87  1  0  0  0  0
 34 88  1  0  0  0  0
M  END
>  <id_input>
4459

>  <InChIKey>
NZYMWGXNIUZYRC-UHFFFAOYSA-N

>  <substance_name>
hexadecyl 3,5-di-tert-butyl-4-hydroxybenzoate

>  <casrn>
67845-93-6

>  <Molecular weight>
474.7586669921875

>  <guideline>
OECD Guideline 404 (Acute Dermal Irritation / Corrosion)

>  <species>
rabbit

>  <type_of_coverage>
semiocclusive

>  <vehicle>
other: The test substance was moistened with 0.9 mL watery ethanol (50% v/v).

>  <edema/ erythema score>
0.3

>  <max_score>
4.0

>  <reversibility>
0.0

>  <Outcome>
0

>  <StandardizerResult>
Remove Explicit Hydrogens (ID: RemoveExplicitH)
Dearomatize (ID: Dearomatize)
Clear Stereo (ID: ClearStereo)
Wedge Clean (ID: WedgeClean)
Mesomerize (ID: Mesomerize)
Tautomerize (ID: Tautomerize)
Aromatize (ID: Aromatize)
Add Explicit Hydrogens (ID: AddExplicitH)
Neutralize (ID: Neutralize)
Clean 2D (ID: Clean2D)


$$$$

  Mrv1812 02121911042D          

 50 49  0  0  0  0            999 V2000
    0.8655    0.4011    0.0000 C   0  0  0  0  0  0  0  0  0  0  0  0
    0.4530    1.1156    0.0000 C   0  0  0  0  0  0  0  0  0  0  0  0
   -0.3720    1.1156    0.0000 C   0  0  0  0  0  0  0  0  0  0  0  0
    0.8655    1.8301    0.0000 C   0  0  0  0  0  0  0  0  0  0  0  0
    0.4530    2.5445    0.0000 O   0  0  0  0  0  0  0  0  0  0  0  0
   -0.3720    2.5445    0.0000 C   0  0  0  0  0  0  0  0  0  0  0  0
   -0.7845    1.8301    0.0000 O   0  0  0  0  0  0  0  0  0  0  0  0
   -0.7845    3.2590    0.0000 C   0  0  0  0  0  0  0  0  0  0  0  0
   -1.6095    3.2590    0.0000 C   0  0  0  0  0  0  0  0  0  0  0  0
   -0.3720    3.9735    0.0000 C   0  0  0  0  0  0  0  0  0  0  0  0
    1.6905    1.8301    0.0000 C   0  0  0  0  0  0  0  0  0  0  0  0
    1.6905    1.0051    0.0000 C   0  0  0  0  0  0  0  0  0  0  0  0
    1.6905    2.6551    0.0000 C   0  0  0  0  0  0  0  0  0  0  0  0
    2.5155    1.8301    0.0000 C   0  0  0  0  0  0  0  0  0  0  0  0
    2.9280    1.1156    0.0000 O   0  0  0  0  0  0  0  0  0  0  0  0
    3.7530    1.1156    0.0000 C   0  0  0  0  0  0  0  0  0  0  0  0
    4.1655    1.8301    0.0000 O   0  0  0  0  0  0  0  0  0  0  0  0
    4.1655    0.4011    0.0000 C   0  0  0  0  0  0  0  0  0  0  0  0
    4.9905    0.4011    0.0000 C   0  0  0  0  0  0  0  0  0  0  0  0
    3.7530   -0.3133    0.0000 C   0  0  0  0  0  0  0  0  0  0  0  0
    0.1510   -0.0114    0.0000 H   0  0  0  0  0  0  0  0  0  0  0  0
    1.2780   -0.3133    0.0000 H   0  0  0  0  0  0  0  0  0  0  0  0
    1.5800    0.8136    0.0000 H   0  0  0  0  0  0  0  0  0  0  0  0
    0.0405    0.4011    0.0000 H   0  0  0  0  0  0  0  0  0  0  0  0
   -1.1845    0.9723    0.0000 H   0  0  0  0  0  0  0  0  0  0  0  0
   -0.9023    0.4836    0.0000 H   0  0  0  0  0  0  0  0  0  0  0  0
    0.0405    1.8301    0.0000 H   0  0  0  0  0  0  0  0  0  0  0  0
    1.2780    1.1156    0.0000 H   0  0  0  0  0  0  0  0  0  0  0  0
   -1.1970    2.5445    0.0000 H   0  0  0  0  0  0  0  0  0  0  0  0
   -1.3960    4.0559    0.0000 H   0  0  0  0  0  0  0  0  0  0  0  0
   -2.3240    3.6715    0.0000 H   0  0  0  0  0  0  0  0  0  0  0  0
   -2.1929    2.6756    0.0000 H   0  0  0  0  0  0  0  0  0  0  0  0
    0.3425    3.5610    0.0000 H   0  0  0  0  0  0  0  0  0  0  0  0
    0.0405    4.6880    0.0000 H   0  0  0  0  0  0  0  0  0  0  0  0
   -1.0865    4.3860    0.0000 H   0  0  0  0  0  0  0  0  0  0  0  0
    2.0062    0.2429    0.0000 H   0  0  0  0  0  0  0  0  0  0  0  0
    2.4874    0.7915    0.0000 H   0  0  0  0  0  0  0  0  0  0  0  0
    2.3450    1.5073    0.0000 H   0  0  0  0  0  0  0  0  0  0  0  0
    2.5155    2.6551    0.0000 H   0  0  0  0  0  0  0  0  0  0  0  0
    1.6905    3.4801    0.0000 H   0  0  0  0  0  0  0  0  0  0  0  0
    0.8655    2.6551    0.0000 H   0  0  0  0  0  0  0  0  0  0  0  0
    3.3124    2.0436    0.0000 H   0  0  0  0  0  0  0  0  0  0  0  0
    1.9321    2.4134    0.0000 H   0  0  0  0  0  0  0  0  0  0  0  0
    4.5780    1.1156    0.0000 H   0  0  0  0  0  0  0  0  0  0  0  0
    4.7770   -0.3958    0.0000 H   0  0  0  0  0  0  0  0  0  0  0  0
    5.7050   -0.0114    0.0000 H   0  0  0  0  0  0  0  0  0  0  0  0
    5.5739    0.9845    0.0000 H   0  0  0  0  0  0  0  0  0  0  0  0
    3.0385    0.0992    0.0000 H   0  0  0  0  0  0  0  0  0  0  0  0
    3.3405   -1.0278    0.0000 H   0  0  0  0  0  0  0  0  0  0  0  0
    4.4675   -0.7258    0.0000 H   0  0  0  0  0  0  0  0  0  0  0  0
  1  2  1  0  0  0  0
  2  3  1  0  0  0  0
  2  4  1  0  0  0  0
  4  5  1  0  0  0  0
  5  6  1  0  0  0  0
  6  7  2  0  0  0  0
  6  8  1  0  0  0  0
  8  9  1  0  0  0  0
  8 10  1  0  0  0  0
  4 11  1  0  0  0  0
 11 12  1  0  0  0  0
 11 13  1  0  0  0  0
 11 14  1  0  0  0  0
 14 15  1  0  0  0  0
 15 16  1  0  0  0  0
 16 17  2  0  0  0  0
 16 18  1  0  0  0  0
 18 19  1  0  0  0  0
 18 20  1  0  0  0  0
  1 21  1  0  0  0  0
  1 22  1  0  0  0  0
  1 23  1  0  0  0  0
  2 24  1  0  0  0  0
  3 25  1  0  0  0  0
  3 26  1  0  0  0  0
  3 27  1  0  0  0  0
  4 28  1  0  0  0  0
  8 29  1  0  0  0  0
  9 30  1  0  0  0  0
  9 31  1  0  0  0  0
  9 32  1  0  0  0  0
 10 33  1  0  0  0  0
 10 34  1  0  0  0  0
 10 35  1  0  0  0  0
 12 36  1  0  0  0  0
 12 37  1  0  0  0  0
 12 38  1  0  0  0  0
 13 39  1  0  0  0  0
 13 40  1  0  0  0  0
 13 41  1  0  0  0  0
 14 42  1  0  0  0  0
 14 43  1  0  0  0  0
 18 44  1  0  0  0  0
 19 45  1  0  0  0  0
 19 46  1  0  0  0  0
 19 47  1  0  0  0  0
 20 48  1  0  0  0  0
 20 49  1  0  0  0  0
 20 50  1  0  0  0  0
M  END
>  <id_input>
2077

>  <InChIKey>
OMVSWZDEEGIJJI-UHFFFAOYSA-N

>  <substance_name>
2,2,4-trimethyl-1-[(2-methylpropanoyl)oxy]pentan-3-yl 2-methylpropanoate

>  <casrn>
6846-50-0

>  <Molecular weight>
286.4070129394531

>  <guideline>
OECD Guideline 404 (Acute Dermal Irritation / Corrosion)

>  <species>
rabbit

>  <type_of_coverage>
semiocclusive

>  <max_duration(hrs)>
4.0

>  <vehicle>
unchanged (no vehicle)

>  <edema/ erythema score>
0.0

>  <max_score>
0.0

>  <reversibility>
0.0

>  <Outcome>
0

>  <StandardizerResult>
Remove Explicit Hydrogens (ID: RemoveExplicitH)
Clear Stereo (ID: ClearStereo)
Wedge Clean (ID: WedgeClean)
Mesomerize (ID: Mesomerize)
Tautomerize (ID: Tautomerize)
Add Explicit Hydrogens (ID: AddExplicitH)
Neutralize (ID: Neutralize)
Clean 2D (ID: Clean2D)


$$$$

  Mrv1812 02121911042D          

 45 47  0  0  0  0            999 V2000
   -2.4563    0.9050    0.0000 C   0  0  0  0  0  0  0  0  0  0  0  0
   -1.7418    0.4925    0.0000 C   0  0  0  0  0  0  0  0  0  0  0  0
   -1.0273    0.9050    0.0000 C   0  0  0  0  0  0  0  0  0  0  0  0
   -0.8211    0.0800    0.0000 C   0  0  0  0  0  0  0  0  0  0  0  0
   -1.0273   -0.7450    0.0000 C   0  0  0  0  0  0  0  0  0  0  0  0
   -0.3128   -0.3325    0.0000 C   0  0  0  0  0  0  0  0  0  0  0  0
   -0.3128    0.4925    0.0000 C   0  0  0  0  0  0  0  0  0  0  0  0
    0.4016    0.9050    0.0000 C   0  0  0  0  0  0  0  0  0  0  0  0
    1.1161    0.4925    0.0000 C   0  0  0  0  0  0  0  0  0  0  0  0
    1.8306    0.9050    0.0000 C   0  0  0  0  0  0  0  0  0  0  0  0
    1.8306    1.7300    0.0000 C   0  0  0  0  0  0  0  0  0  0  0  0
    2.5450    2.1425    0.0000 O   0  0  0  0  0  0  0  0  0  0  0  0
    1.1161    2.1425    0.0000 C   0  0  0  0  0  0  0  0  0  0  0  0
    0.4016    1.7300    0.0000 C   0  0  0  0  0  0  0  0  0  0  0  0
   -1.7418   -0.3325    0.0000 C   0  0  0  0  0  0  0  0  0  0  0  0
   -2.0240   -1.1077    0.0000 C   0  0  0  0  0  0  0  0  0  0  0  0
   -2.5542   -0.1892    0.0000 C   0  0  0  0  0  0  0  0  0  0  0  0
   -2.0438    1.6195    0.0000 H   0  0  0  0  0  0  0  0  0  0  0  0
   -3.1707    1.3175    0.0000 H   0  0  0  0  0  0  0  0  0  0  0  0
   -2.8688    0.1906    0.0000 H   0  0  0  0  0  0  0  0  0  0  0  0
   -1.7418    1.3175    0.0000 H   0  0  0  0  0  0  0  0  0  0  0  0
   -0.6148    1.6195    0.0000 H   0  0  0  0  0  0  0  0  0  0  0  0
   -1.5668    0.4329    0.0000 H   0  0  0  0  0  0  0  0  0  0  0  0
   -1.5668   -0.2728    0.0000 H   0  0  0  0  0  0  0  0  0  0  0  0
   -1.0273   -1.5700    0.0000 H   0  0  0  0  0  0  0  0  0  0  0  0
    0.1405   -1.0217    0.0000 H   0  0  0  0  0  0  0  0  0  0  0  0
    0.5108   -0.3804    0.0000 H   0  0  0  0  0  0  0  0  0  0  0  0
   -0.3128    1.3175    0.0000 H   0  0  0  0  0  0  0  0  0  0  0  0
    0.4016    0.0800    0.0000 H   0  0  0  0  0  0  0  0  0  0  0  0
    1.2594   -0.3199    0.0000 H   0  0  0  0  0  0  0  0  0  0  0  0
    1.7481   -0.0378    0.0000 H   0  0  0  0  0  0  0  0  0  0  0  0
    2.5897    0.5819    0.0000 H   0  0  0  0  0  0  0  0  0  0  0  0
    2.6149    1.1607    0.0000 H   0  0  0  0  0  0  0  0  0  0  0  0
    1.1161    1.3175    0.0000 H   0  0  0  0  0  0  0  0  0  0  0  0
    3.2595    1.7300    0.0000 H   0  0  0  0  0  0  0  0  0  0  0  0
    1.4864    2.8798    0.0000 H   0  0  0  0  0  0  0  0  0  0  0  0
    0.7458    2.8798    0.0000 H   0  0  0  0  0  0  0  0  0  0  0  0
    0.2584    2.5425    0.0000 H   0  0  0  0  0  0  0  0  0  0  0  0
   -0.2304    2.2603    0.0000 H   0  0  0  0  0  0  0  0  0  0  0  0
   -2.7879   -0.7963    0.0000 H   0  0  0  0  0  0  0  0  0  0  0  0
   -2.3641   -1.8593    0.0000 H   0  0  0  0  0  0  0  0  0  0  0  0
   -1.2858   -1.4762    0.0000 H   0  0  0  0  0  0  0  0  0  0  0  0
   -2.1394    0.5239    0.0000 H   0  0  0  0  0  0  0  0  0  0  0  0
   -3.3684   -0.3224    0.0000 H   0  0  0  0  0  0  0  0  0  0  0  0
   -2.1483   -0.9074    0.0000 H   0  0  0  0  0  0  0  0  0  0  0  0
  1  2  1  0  0  0  0
  3  2  1  0  0  0  0
  3  4  1  0  0  0  0
  4  5  1  0  0  0  0
  5  6  1  0  0  0  0
  6  7  1  0  0  0  0
  7  8  1  0  0  0  0
  9  8  1  0  0  0  0
 10  9  1  0  0  0  0
 11 10  1  0  0  0  0
 11 12  1  0  0  0  0
 13 11  1  0  0  0  0
 14 13  1  0  0  0  0
 15  5  1  0  0  0  0
 15 16  1  0  0  0  0
 15 17  1  0  0  0  0
  2 15  1  0  0  0  0
  7  3  1  0  0  0  0
  8 14  1  0  0  0  0
  1 18  1  0  0  0  0
  1 19  1  0  0  0  0
  1 20  1  0  0  0  0
  2 21  1  0  0  0  0
  3 22  1  0  0  0  0
  4 23  1  0  0  0  0
  4 24  1  0  0  0  0
  5 25  1  0  0  0  0
  6 26  1  0  0  0  0
  6 27  1  0  0  0  0
  7 28  1  0  0  0  0
  8 29  1  0  0  0  0
  9 30  1  0  0  0  0
  9 31  1  0  0  0  0
 10 32  1  0  0  0  0
 10 33  1  0  0  0  0
 11 34  1  0  0  0  0
 12 35  1  0  0  0  0
 13 36  1  0  0  0  0
 13 37  1  0  0  0  0
 14 38  1  0  0  0  0
 14 39  1  0  0  0  0
 16 40  1  0  0  0  0
 16 41  1  0  0  0  0
 16 42  1  0  0  0  0
 17 43  1  0  0  0  0
 17 44  1  0  0  0  0
 17 45  1  0  0  0  0
M  END
>  <id_input>
2940

>  <InChIKey>
PCFHYANYPQEMPU-UHFFFAOYSA-N

>  <substance_name>
4-{5,5,6-trimethylbicyclo[2.2.1]heptan-2-yl}cyclohexan-1-ol

>  <casrn>
66068-84-6

>  <Molecular weight>
236.39292907714844

>  <guideline>
OECD Guideline 404 (Acute Dermal Irritation / Corrosion)

>  <species>
rabbit

>  <type_of_coverage>
occlusive

>  <max_duration(hrs)>
4.0

>  <vehicle>
other: distilled water

>  <edema/ erythema score>
0.0

>  <max_score>
3.0

>  <reversibility>
0.0

>  <Outcome>
0

>  <StandardizerResult>
Remove Explicit Hydrogens (ID: RemoveExplicitH)
Clear Stereo (ID: ClearStereo)
Wedge Clean (ID: WedgeClean)
Mesomerize (ID: Mesomerize)
Tautomerize (ID: Tautomerize)
Add Explicit Hydrogens (ID: AddExplicitH)
Neutralize (ID: Neutralize)
Clean 2D (ID: Clean2D)


$$$$

  Mrv1812 02121911042D          

 21 21  0  0  0  0            999 V2000
    3.5805   -0.2485    0.0000 C   0  0  0  0  0  0  0  0  0  0  0  0
    2.8660    0.1640    0.0000 C   0  0  0  0  0  0  0  0  0  0  0  0
    2.8660    0.9890    0.0000 O   0  0  0  0  0  0  0  0  0  0  0  0
    2.1515   -0.2485    0.0000 O   0  0  0  0  0  0  0  0  0  0  0  0
    1.4371    0.1640    0.0000 C   0  0  0  0  0  0  0  0  0  0  0  0
    0.7226   -0.2485    0.0000 C   0  0  0  0  0  0  0  0  0  0  0  0
    0.0081    0.1640    0.0000 C   0  0  0  0  0  0  0  0  0  0  0  0
   -0.7064   -0.2485    0.0000 C   0  0  0  0  0  0  0  0  0  0  0  0
   -0.7064   -1.0735    0.0000 C   0  0  0  0  0  0  0  0  0  0  0  0
    0.0081   -1.4860    0.0000 C   0  0  0  0  0  0  0  0  0  0  0  0
    0.7226   -1.0735    0.0000 C   0  0  0  0  0  0  0  0  0  0  0  0
    3.1680   -0.9630    0.0000 H   0  0  0  0  0  0  0  0  0  0  0  0
    4.2949   -0.6610    0.0000 H   0  0  0  0  0  0  0  0  0  0  0  0
    3.9930    0.4659    0.0000 H   0  0  0  0  0  0  0  0  0  0  0  0
    1.8073    0.9012    0.0000 H   0  0  0  0  0  0  0  0  0  0  0  0
    1.0668    0.9012    0.0000 H   0  0  0  0  0  0  0  0  0  0  0  0
    0.0081    0.9890    0.0000 H   0  0  0  0  0  0  0  0  0  0  0  0
   -1.4208    0.1640    0.0000 H   0  0  0  0  0  0  0  0  0  0  0  0
   -1.4208   -1.4860    0.0000 H   0  0  0  0  0  0  0  0  0  0  0  0
    0.0081   -2.3110    0.0000 H   0  0  0  0  0  0  0  0  0  0  0  0
    1.4371   -1.4860    0.0000 H   0  0  0  0  0  0  0  0  0  0  0  0
  1  2  1  0  0  0  0
  2  3  2  0  0  0  0
  2  4  1  0  0  0  0
  4  5  1  0  0  0  0
  5  6  1  0  0  0  0
  7  6  4  0  0  0  0
  8  7  4  0  0  0  0
  9  8  4  0  0  0  0
 10  9  4  0  0  0  0
 11 10  4  0  0  0  0
  6 11  4  0  0  0  0
  1 12  1  0  0  0  0
  1 13  1  0  0  0  0
  1 14  1  0  0  0  0
  5 15  1  0  0  0  0
  5 16  1  0  0  0  0
  7 17  1  0  0  0  0
  8 18  1  0  0  0  0
  9 19  1  0  0  0  0
 10 20  1  0  0  0  0
 11 21  1  0  0  0  0
M  END
>  <id_input>
3899

>  <InChIKey>
QUKGYYKBILRGFE-UHFFFAOYSA-N

>  <substance_name>
benzyl acetate

>  <casrn>
140-11-4

>  <Molecular weight>
150.17449951171875

>  <guideline>
EU Method B.4 (Acute Toxicity: Dermal Irritation / Corrosion)

>  <species>
rabbit

>  <type_of_coverage>
semiocclusive

>  <max_duration(hrs)>
4.0

>  <vehicle>
unchanged (no vehicle)

>  <edema/ erythema score>
0.89

>  <max_score>
2.0

>  <reversibility>
0.0

>  <Outcome>
0

>  <StandardizerResult>
Remove Explicit Hydrogens (ID: RemoveExplicitH)
Dearomatize (ID: Dearomatize)
Clear Stereo (ID: ClearStereo)
Wedge Clean (ID: WedgeClean)
Mesomerize (ID: Mesomerize)
Tautomerize (ID: Tautomerize)
Aromatize (ID: Aromatize)
Add Explicit Hydrogens (ID: AddExplicitH)
Neutralize (ID: Neutralize)
Clean 2D (ID: Clean2D)


$$$$

  Mrv1812 02121911042D          

 18 17  0  0  0  0            999 V2000
    0.8520    1.4757    0.0000 C   0  0  0  0  0  0  0  0  0  0  0  0
    0.8520    0.6507    0.0000 C   0  0  0  0  0  0  0  0  0  0  0  0
    0.8520   -0.1743    0.0000 C   0  0  0  0  0  0  0  0  0  0  0  0
    1.6770    0.6507    0.0000 C   0  0  0  0  0  0  0  0  0  0  0  0
    2.5020    0.6507    0.0000 N   0  0  0  0  0  0  0  0  0  0  0  0
    0.0270    0.6507    0.0000 C   0  0  0  0  0  0  0  0  0  0  0  0
   -0.3855   -0.0638    0.0000 O   0  0  0  0  0  0  0  0  0  0  0  0
   -0.3855    1.3651    0.0000 O   0  0  0  0  0  0  0  0  0  0  0  0
   -1.2105    1.3651    0.0000 C   0  0  0  0  0  0  0  0  0  0  0  0
    1.6770    1.4757    0.0000 H   0  0  0  0  0  0  0  0  0  0  0  0
    0.8520    2.3007    0.0000 H   0  0  0  0  0  0  0  0  0  0  0  0
    0.0270    1.4757    0.0000 H   0  0  0  0  0  0  0  0  0  0  0  0
    0.0270   -0.1743    0.0000 H   0  0  0  0  0  0  0  0  0  0  0  0
    0.8520   -0.9993    0.0000 H   0  0  0  0  0  0  0  0  0  0  0  0
    1.6770   -0.1743    0.0000 H   0  0  0  0  0  0  0  0  0  0  0  0
   -1.2105    2.1901    0.0000 H   0  0  0  0  0  0  0  0  0  0  0  0
   -2.0355    1.3651    0.0000 H   0  0  0  0  0  0  0  0  0  0  0  0
   -1.2105    0.5401    0.0000 H   0  0  0  0  0  0  0  0  0  0  0  0
  1  2  1  0  0  0  0
  2  3  1  0  0  0  0
  2  4  1  0  0  0  0
  4  5  3  0  0  0  0
  2  6  1  0  0  0  0
  6  7  2  0  0  0  0
  6  8  1  0  0  0  0
  8  9  1  0  0  0  0
  1 10  1  0  0  0  0
  1 11  1  0  0  0  0
  1 12  1  0  0  0  0
  3 13  1  0  0  0  0
  3 14  1  0  0  0  0
  3 15  1  0  0  0  0
  9 16  1  0  0  0  0
  9 17  1  0  0  0  0
  9 18  1  0  0  0  0
M  END
>  <id_input>
5489

>  <InChIKey>
TZPHOIMASXVLQZ-UHFFFAOYSA-N

>  <substance_name>
unnamed [72291-30-6]

>  <casrn>
72291-30-6

>  <Molecular weight>
127.14115905761719

>  <guideline>
OECD Guideline 404 (Acute Dermal Irritation / Corrosion)

>  <species>
rabbit

>  <type_of_coverage>
semiocclusive

>  <max_duration(hrs)>
4.0

>  <vehicle>
unchanged (no vehicle)

>  <edema/ erythema score>
0.275

>  <max_score>
4.0

>  <reversibility>
0.0

>  <Outcome>
0

>  <StandardizerResult>
Remove Explicit Hydrogens (ID: RemoveExplicitH)
Clear Stereo (ID: ClearStereo)
Wedge Clean (ID: WedgeClean)
Mesomerize (ID: Mesomerize)
Tautomerize (ID: Tautomerize)
Add Explicit Hydrogens (ID: AddExplicitH)
Neutralize (ID: Neutralize)
Clean 2D (ID: Clean2D)


$$$$

  Mrv1812 02121911042D          

 17 16  0  0  0  0            999 V2000
   -0.1989    0.0534    0.0000 C   0  0  0  0  0  0  0  0  0  0  0  0
    0.5156    0.4659    0.0000 S   0  0  0  0  0  0  0  0  0  0  0  0
    1.2300    0.0534    0.0000 C   0  0  0  0  0  0  0  0  0  0  0  0
    1.9445    0.4659    0.0000 C   0  0  0  0  0  0  0  0  0  0  0  0
    2.6590    0.0534    0.0000 C   0  0  0  0  0  0  0  0  0  0  0  0
    2.6590   -0.7716    0.0000 O   0  0  0  0  0  0  0  0  0  0  0  0
    3.3735    0.4659    0.0000 C   0  0  0  0  0  0  0  0  0  0  0  0
    4.0879    0.8784    0.0000 N   0  0  0  0  0  0  0  0  0  0  0  0
   -0.6114    0.7678    0.0000 H   0  0  0  0  0  0  0  0  0  0  0  0
   -0.9134   -0.3591    0.0000 H   0  0  0  0  0  0  0  0  0  0  0  0
    0.2136   -0.6611    0.0000 H   0  0  0  0  0  0  0  0  0  0  0  0
    0.8598   -0.6839    0.0000 H   0  0  0  0  0  0  0  0  0  0  0  0
    1.6003   -0.6839    0.0000 H   0  0  0  0  0  0  0  0  0  0  0  0
    2.3148    1.2031    0.0000 H   0  0  0  0  0  0  0  0  0  0  0  0
    1.5742    1.2031    0.0000 H   0  0  0  0  0  0  0  0  0  0  0  0
    1.9445   -0.3591    0.0000 H   0  0  0  0  0  0  0  0  0  0  0  0
    3.0715   -1.4861    0.0000 H   0  0  0  0  0  0  0  0  0  0  0  0
  1  2  1  0  0  0  0
  2  3  1  0  0  0  0
  3  4  1  0  0  0  0
  4  5  1  0  0  0  0
  5  6  1  0  0  0  0
  5  7  1  0  0  0  0
  7  8  3  0  0  0  0
  1  9  1  0  0  0  0
  1 10  1  0  0  0  0
  1 11  1  0  0  0  0
  3 12  1  0  0  0  0
  3 13  1  0  0  0  0
  4 14  1  0  0  0  0
  4 15  1  0  0  0  0
  5 16  1  0  0  0  0
  6 17  1  0  0  0  0
M  END
>  <id_input>
2487

>  <InChIKey>
VWWOJJANXYSACS-UHFFFAOYSA-N

>  <substance_name>
2-hydroxy-4-(methylsulfanyl)butanenitrile

>  <casrn>
17773-41-0

>  <Molecular weight>
131.19606018066406

>  <guideline>
OECD Guideline 404 (Acute Dermal Irritation / Corrosion)

>  <species>
rabbit

>  <type_of_coverage>
semiocclusive

>  <max_duration(hrs)>
4.0

>  <vehicle>
unchanged (no vehicle)

>  <edema/ erythema score>
0.77

>  <max_score>
4.0

>  <reversibility>
0.0

>  <Outcome>
0

>  <StandardizerResult>
Remove Explicit Hydrogens (ID: RemoveExplicitH)
Clear Stereo (ID: ClearStereo)
Wedge Clean (ID: WedgeClean)
Mesomerize (ID: Mesomerize)
Tautomerize (ID: Tautomerize)
Add Explicit Hydrogens (ID: AddExplicitH)
Neutralize (ID: Neutralize)
Clean 2D (ID: Clean2D)


$$$$

  Mrv1812 02121911042D          

 65 68  0  0  0  0            999 V2000
    0.7830   -2.6126    0.0000 C   0  0  0  0  0  0  0  0  0  0  0  0
    0.0686   -2.2001    0.0000 Si  0  0  0  0  0  4  0  0  0  0  0  0
   -0.6459   -1.7876    0.0000 C   0  0  0  0  0  0  0  0  0  0  0  0
   -0.3439   -2.9145    0.0000 O   0  0  0  0  0  0  0  0  0  0  0  0
    0.0686   -3.6290    0.0000 Si  0  0  0  0  0  4  0  0  0  0  0  0
    0.7830   -3.2165    0.0000 C   0  0  0  0  0  0  0  0  0  0  0  0
   -0.6459   -4.0415    0.0000 C   0  0  0  0  0  0  0  0  0  0  0  0
   -1.3604   -3.6290    0.0000 C   0  0  0  0  0  0  0  0  0  0  0  0
   -2.0748   -4.0415    0.0000 C   0  0  0  0  0  0  0  0  0  0  0  0
   -2.0748   -4.8665    0.0000 C   0  0  0  0  0  0  0  0  0  0  0  0
   -1.3604   -5.2790    0.0000 C   0  0  0  0  0  0  0  0  0  0  0  0
   -0.6459   -4.8665    0.0000 C   0  0  0  0  0  0  0  0  0  0  0  0
    0.4811   -4.3435    0.0000 C   0  0  0  0  0  0  0  0  0  0  0  0
    0.0686   -5.0579    0.0000 C   0  0  0  0  0  0  0  0  0  0  0  0
    0.4811   -5.7724    0.0000 C   0  0  0  0  0  0  0  0  0  0  0  0
    1.3061   -5.7724    0.0000 C   0  0  0  0  0  0  0  0  0  0  0  0
    1.7186   -5.0579    0.0000 C   0  0  0  0  0  0  0  0  0  0  0  0
    1.3061   -4.3435    0.0000 C   0  0  0  0  0  0  0  0  0  0  0  0
    0.4811   -1.4856    0.0000 O   0  0  0  0  0  0  0  0  0  0  0  0
    1.3061   -1.4856    0.0000 Si  0  0  0  0  0  4  0  0  0  0  0  0
    1.3061   -2.3106    0.0000 C   0  0  0  0  0  0  0  0  0  0  0  0
    2.1311   -1.4856    0.0000 C   0  0  0  0  0  0  0  0  0  0  0  0
    2.5436   -2.2001    0.0000 C   0  0  0  0  0  0  0  0  0  0  0  0
    3.3686   -2.2001    0.0000 C   0  0  0  0  0  0  0  0  0  0  0  0
    3.7811   -1.4856    0.0000 C   0  0  0  0  0  0  0  0  0  0  0  0
    3.3686   -0.7711    0.0000 C   0  0  0  0  0  0  0  0  0  0  0  0
    2.5436   -0.7711    0.0000 C   0  0  0  0  0  0  0  0  0  0  0  0
    1.3061   -0.6606    0.0000 C   0  0  0  0  0  0  0  0  0  0  0  0
    2.0205   -0.2481    0.0000 C   0  0  0  0  0  0  0  0  0  0  0  0
    2.0205    0.5769    0.0000 C   0  0  0  0  0  0  0  0  0  0  0  0
    1.3061    0.9894    0.0000 C   0  0  0  0  0  0  0  0  0  0  0  0
    0.5916    0.5769    0.0000 C   0  0  0  0  0  0  0  0  0  0  0  0
    0.5916   -0.2481    0.0000 C   0  0  0  0  0  0  0  0  0  0  0  0
    1.4975   -3.0251    0.0000 H   0  0  0  0  0  0  0  0  0  0  0  0
    0.0686   -3.0251    0.0000 H   0  0  0  0  0  0  0  0  0  0  0  0
    0.7830   -1.7876    0.0000 H   0  0  0  0  0  0  0  0  0  0  0  0
   -0.2334   -1.0731    0.0000 H   0  0  0  0  0  0  0  0  0  0  0  0
   -1.3604   -1.3751    0.0000 H   0  0  0  0  0  0  0  0  0  0  0  0
   -1.0584   -2.5020    0.0000 H   0  0  0  0  0  0  0  0  0  0  0  0
    0.5179   -3.9977    0.0000 H   0  0  0  0  0  0  0  0  0  0  0  0
    1.0988   -3.9787    0.0000 H   0  0  0  0  0  0  0  0  0  0  0  0
    1.5230   -3.5814    0.0000 H   0  0  0  0  0  0  0  0  0  0  0  0
   -1.3604   -2.8040    0.0000 H   0  0  0  0  0  0  0  0  0  0  0  0
   -2.7893   -3.6290    0.0000 H   0  0  0  0  0  0  0  0  0  0  0  0
   -2.7893   -5.2790    0.0000 H   0  0  0  0  0  0  0  0  0  0  0  0
   -1.3604   -6.1040    0.0000 H   0  0  0  0  0  0  0  0  0  0  0  0
   -0.5382   -5.6844    0.0000 H   0  0  0  0  0  0  0  0  0  0  0  0
    0.8936   -5.0579    0.0000 H   0  0  0  0  0  0  0  0  0  0  0  0
    0.0686   -6.4869    0.0000 H   0  0  0  0  0  0  0  0  0  0  0  0
    1.7186   -6.4869    0.0000 H   0  0  0  0  0  0  0  0  0  0  0  0
    2.5436   -5.0579    0.0000 H   0  0  0  0  0  0  0  0  0  0  0  0
    2.1248   -4.2421    0.0000 H   0  0  0  0  0  0  0  0  0  0  0  0
    1.9920   -2.7689    0.0000 H   0  0  0  0  0  0  0  0  0  0  0  0
    2.1240   -2.2029    0.0000 H   0  0  0  0  0  0  0  0  0  0  0  0
    1.8500   -1.6903    0.0000 H   0  0  0  0  0  0  0  0  0  0  0  0
    2.8652   -2.9598    0.0000 H   0  0  0  0  0  0  0  0  0  0  0  0
    4.0700   -2.6344    0.0000 H   0  0  0  0  0  0  0  0  0  0  0  0
    4.6061   -1.4856    0.0000 H   0  0  0  0  0  0  0  0  0  0  0  0
    3.7811   -0.0566    0.0000 H   0  0  0  0  0  0  0  0  0  0  0  0
    2.8593   -0.0089    0.0000 H   0  0  0  0  0  0  0  0  0  0  0  0
    1.3061    0.1644    0.0000 H   0  0  0  0  0  0  0  0  0  0  0  0
    2.7350    0.9894    0.0000 H   0  0  0  0  0  0  0  0  0  0  0  0
    1.3061    1.8144    0.0000 H   0  0  0  0  0  0  0  0  0  0  0  0
   -0.1229    0.9894    0.0000 H   0  0  0  0  0  0  0  0  0  0  0  0
   -0.1229   -0.6606    0.0000 H   0  0  0  0  0  0  0  0  0  0  0  0
  1  2  1  0  0  0  0
  2  3  1  0  0  0  0
  2  4  1  0  0  0  0
  4  5  1  0  0  0  0
  5  6  1  0  0  0  0
  5  7  1  0  0  0  0
  8  7  4  0  0  0  0
  9  8  4  0  0  0  0
 10  9  4  0  0  0  0
 11 10  4  0  0  0  0
 12 11  4  0  0  0  0
  5 13  1  0  0  0  0
 14 13  4  0  0  0  0
 15 14  4  0  0  0  0
 16 15  4  0  0  0  0
 17 16  4  0  0  0  0
 18 17  4  0  0  0  0
  2 19  1  0  0  0  0
 19 20  1  0  0  0  0
 20 21  1  0  0  0  0
 20 22  1  0  0  0  0
 23 22  4  0  0  0  0
 24 23  4  0  0  0  0
 25 24  4  0  0  0  0
 26 25  4  0  0  0  0
 27 26  4  0  0  0  0
 20 28  1  0  0  0  0
 29 28  4  0  0  0  0
 30 29  4  0  0  0  0
 31 30  4  0  0  0  0
 32 31  4  0  0  0  0
 33 32  4  0  0  0  0
  7 12  4  0  0  0  0
 13 18  4  0  0  0  0
 22 27  4  0  0  0  0
 28 33  4  0  0  0  0
  1 34  1  0  0  0  0
  1 35  1  0  0  0  0
  1 36  1  0  0  0  0
  3 37  1  0  0  0  0
  3 38  1  0  0  0  0
  3 39  1  0  0  0  0
  6 40  1  0  0  0  0
  6 41  1  0  0  0  0
  6 42  1  0  0  0  0
  8 43  1  0  0  0  0
  9 44  1  0  0  0  0
 10 45  1  0  0  0  0
 11 46  1  0  0  0  0
 12 47  1  0  0  0  0
 14 48  1  0  0  0  0
 15 49  1  0  0  0  0
 16 50  1  0  0  0  0
 17 51  1  0  0  0  0
 18 52  1  0  0  0  0
 21 53  1  0  0  0  0
 21 54  1  0  0  0  0
 21 55  1  0  0  0  0
 23 56  1  0  0  0  0
 24 57  1  0  0  0  0
 25 58  1  0  0  0  0
 26 59  1  0  0  0  0
 27 60  1  0  0  0  0
 29 61  1  0  0  0  0
 30 62  1  0  0  0  0
 31 63  1  0  0  0  0
 32 64  1  0  0  0  0
 33 65  1  0  0  0  0
M  END
>  <id_input>
2812

>  <InChIKey>
YFCVAZGXPLMNDG-UHFFFAOYSA-N

>  <substance_name>
4,4-dimethyl-2,2,6,6-tetraphenyl-3,5-dioxa-2,4,6-trisilaheptane

>  <casrn>
3982-82-9

>  <Molecular weight>
484.8089904785156

>  <guideline>
OECD Guideline 404 (Acute Dermal Irritation / Corrosion)

>  <species>
rabbit

>  <type_of_coverage>
semiocclusive

>  <max_duration(hrs)>
4.0

>  <vehicle>
unchanged (no vehicle)

>  <edema/ erythema score>
0.553333333333333

>  <max_score>
4.0

>  <reversibility>
0.0

>  <Outcome>
0

>  <StandardizerResult>
Remove Explicit Hydrogens (ID: RemoveExplicitH)
Dearomatize (ID: Dearomatize)
Clear Stereo (ID: ClearStereo)
Wedge Clean (ID: WedgeClean)
Mesomerize (ID: Mesomerize)
Tautomerize (ID: Tautomerize)
Aromatize (ID: Aromatize)
Add Explicit Hydrogens (ID: AddExplicitH)
Neutralize (ID: Neutralize)
Clean 2D (ID: Clean2D)


$$$$

  Mrv1812 02121911042D          

 39 40  0  0  0  0            999 V2000
    1.6434    0.3425    0.0000 C   0  0  0  0  0  0  0  0  0  0  0  0
    0.9290   -0.0700    0.0000 C   0  0  0  0  0  0  0  0  0  0  0  0
    0.2145    0.3425    0.0000 C   0  0  0  0  0  0  0  0  0  0  0  0
   -0.5000   -0.0700    0.0000 C   0  0  0  0  0  0  0  0  0  0  0  0
   -1.2144    0.3425    0.0000 C   0  0  0  0  0  0  0  0  0  0  0  0
   -1.9289   -0.0700    0.0000 C   0  0  0  0  0  0  0  0  0  0  0  0
   -2.6434    0.3425    0.0000 C   0  0  0  0  0  0  0  0  0  0  0  0
   -3.3579   -0.0700    0.0000 C   0  0  0  0  0  0  0  0  0  0  0  0
   -4.0723    0.3425    0.0000 C   0  0  0  0  0  0  0  0  0  0  0  0
   -3.3579   -0.8950    0.0000 C   0  0  0  0  0  0  0  0  0  0  0  0
   -4.0723   -1.3075    0.0000 O   0  0  0  0  0  0  0  0  0  0  0  0
   -2.6434   -1.3075    0.0000 C   0  0  0  0  0  0  0  0  0  0  0  0
   -2.6434   -2.1325    0.0000 C   0  0  0  0  0  0  0  0  0  0  0  0
   -1.9289   -0.8950    0.0000 C   0  0  0  0  0  0  0  0  0  0  0  0
   -0.5000   -0.8950    0.0000 C   0  0  0  0  0  0  0  0  0  0  0  0
    0.2145   -1.3075    0.0000 C   0  0  0  0  0  0  0  0  0  0  0  0
    0.2145   -2.1325    0.0000 C   0  0  0  0  0  0  0  0  0  0  0  0
    0.9290   -0.8950    0.0000 C   0  0  0  0  0  0  0  0  0  0  0  0
    1.6434   -1.3075    0.0000 O   0  0  0  0  0  0  0  0  0  0  0  0
    2.0559   -0.3720    0.0000 H   0  0  0  0  0  0  0  0  0  0  0  0
    2.3579    0.7550    0.0000 H   0  0  0  0  0  0  0  0  0  0  0  0
    1.2309    1.0569    0.0000 H   0  0  0  0  0  0  0  0  0  0  0  0
    0.2145    1.1675    0.0000 H   0  0  0  0  0  0  0  0  0  0  0  0
   -0.8442    1.0797    0.0000 H   0  0  0  0  0  0  0  0  0  0  0  0
   -1.5847    1.0797    0.0000 H   0  0  0  0  0  0  0  0  0  0  0  0
   -2.6434    1.1675    0.0000 H   0  0  0  0  0  0  0  0  0  0  0  0
   -3.6598    1.0569    0.0000 H   0  0  0  0  0  0  0  0  0  0  0  0
   -4.7868    0.7550    0.0000 H   0  0  0  0  0  0  0  0  0  0  0  0
   -4.4848   -0.3720    0.0000 H   0  0  0  0  0  0  0  0  0  0  0  0
   -4.7868   -0.8950    0.0000 H   0  0  0  0  0  0  0  0  0  0  0  0
   -3.4684   -2.1325    0.0000 H   0  0  0  0  0  0  0  0  0  0  0  0
   -2.6434   -2.9575    0.0000 H   0  0  0  0  0  0  0  0  0  0  0  0
   -1.8184   -2.1325    0.0000 H   0  0  0  0  0  0  0  0  0  0  0  0
   -1.2144   -1.3075    0.0000 H   0  0  0  0  0  0  0  0  0  0  0  0
   -1.2144   -0.4825    0.0000 H   0  0  0  0  0  0  0  0  0  0  0  0
   -0.6105   -2.1325    0.0000 H   0  0  0  0  0  0  0  0  0  0  0  0
    0.2145   -2.9575    0.0000 H   0  0  0  0  0  0  0  0  0  0  0  0
    1.0395   -2.1325    0.0000 H   0  0  0  0  0  0  0  0  0  0  0  0
    1.6434   -2.1325    0.0000 H   0  0  0  0  0  0  0  0  0  0  0  0
  1  2  1  0  0  0  0
  3  2  4  0  0  0  0
  4  3  4  0  0  0  0
  4  5  1  0  0  0  0
  5  6  1  0  0  0  0
  7  6  4  0  0  0  0
  8  7  4  0  0  0  0
  8  9  1  0  0  0  0
 10  8  4  0  0  0  0
 10 11  1  0  0  0  0
 12 10  4  0  0  0  0
 12 13  1  0  0  0  0
 14 12  4  0  0  0  0
 15  4  4  0  0  0  0
 16 15  4  0  0  0  0
 16 17  1  0  0  0  0
 18 16  4  0  0  0  0
 18 19  1  0  0  0  0
  2 18  4  0  0  0  0
  6 14  4  0  0  0  0
  1 20  1  0  0  0  0
  1 21  1  0  0  0  0
  1 22  1  0  0  0  0
  3 23  1  0  0  0  0
  5 24  1  0  0  0  0
  5 25  1  0  0  0  0
  7 26  1  0  0  0  0
  9 27  1  0  0  0  0
  9 28  1  0  0  0  0
  9 29  1  0  0  0  0
 11 30  1  0  0  0  0
 13 31  1  0  0  0  0
 13 32  1  0  0  0  0
 13 33  1  0  0  0  0
 14 34  1  0  0  0  0
 15 35  1  0  0  0  0
 17 36  1  0  0  0  0
 17 37  1  0  0  0  0
 17 38  1  0  0  0  0
 19 39  1  0  0  0  0
M  END
>  <id_input>
2808

>  <InChIKey>
AZZWZMUXHALBCQ-UHFFFAOYSA-N

>  <substance_name>
4,4'-methylenebis(2,6-dimethylphenol)

>  <casrn>
5384-21-4

>  <Molecular weight>
256.3395080566406

>  <guideline>
OECD Guideline 404 (Acute Dermal Irritation / Corrosion)

>  <species>
rabbit

>  <type_of_coverage>
occlusive

>  <max_duration(hrs)>
4.0

>  <vehicle>
other: distilled water

>  <edema/ erythema score>
0.0

>  <max_score>
3.0

>  <reversibility>
0.0

>  <Outcome>
0

>  <StandardizerResult>
Remove Explicit Hydrogens (ID: RemoveExplicitH)
Dearomatize (ID: Dearomatize)
Clear Stereo (ID: ClearStereo)
Wedge Clean (ID: WedgeClean)
Mesomerize (ID: Mesomerize)
Tautomerize (ID: Tautomerize)
Aromatize (ID: Aromatize)
Add Explicit Hydrogens (ID: AddExplicitH)
Neutralize (ID: Neutralize)
Clean 2D (ID: Clean2D)


$$$$

  Mrv1812 02121911042D          

 22 21  0  0  0  0            999 V2000
    3.3831    0.0806    0.0000 O   0  0  0  0  0  0  0  0  0  0  0  0
    2.6686    0.4931    0.0000 C   0  0  0  0  0  0  0  0  0  0  0  0
    1.9542    0.0806    0.0000 O   0  0  0  0  0  0  0  0  0  0  0  0
    1.9542   -0.7444    0.0000 C   0  0  0  0  0  0  0  0  0  0  0  0
    1.2397   -1.1569    0.0000 C   0  0  0  0  0  0  0  0  0  0  0  0
    1.2397   -1.9819    0.0000 C   0  0  0  0  0  0  0  0  0  0  0  0
    2.6686    1.3181    0.0000 C   0  0  0  0  0  0  0  0  0  0  0  0
    2.6686    2.1431    0.0000 O   0  0  0  0  0  0  0  0  0  0  0  0
    3.4936    1.3181    0.0000 C   0  0  0  0  0  0  0  0  0  0  0  0
    1.8436    1.3181    0.0000 C   0  0  0  0  0  0  0  0  0  0  0  0
    2.4075   -1.4337    0.0000 H   0  0  0  0  0  0  0  0  0  0  0  0
    2.7778   -0.7924    0.0000 H   0  0  0  0  0  0  0  0  0  0  0  0
    0.5252   -0.7444    0.0000 H   0  0  0  0  0  0  0  0  0  0  0  0
    0.5252   -2.3944    0.0000 H   0  0  0  0  0  0  0  0  0  0  0  0
    1.9542   -2.3944    0.0000 H   0  0  0  0  0  0  0  0  0  0  0  0
    3.3831    2.5556    0.0000 H   0  0  0  0  0  0  0  0  0  0  0  0
    3.4936    0.4931    0.0000 H   0  0  0  0  0  0  0  0  0  0  0  0
    4.3186    1.3181    0.0000 H   0  0  0  0  0  0  0  0  0  0  0  0
    3.4936    2.1431    0.0000 H   0  0  0  0  0  0  0  0  0  0  0  0
    1.8436    2.1431    0.0000 H   0  0  0  0  0  0  0  0  0  0  0  0
    1.0186    1.3181    0.0000 H   0  0  0  0  0  0  0  0  0  0  0  0
    1.8436    0.4931    0.0000 H   0  0  0  0  0  0  0  0  0  0  0  0
  1  2  2  0  0  0  0
  2  3  1  0  0  0  0
  3  4  1  0  0  0  0
  4  5  1  0  0  0  0
  5  6  2  0  0  0  0
  2  7  1  0  0  0  0
  7  8  1  0  0  0  0
  7  9  1  0  0  0  0
  7 10  1  0  0  0  0
  4 11  1  0  0  0  0
  4 12  1  0  0  0  0
  5 13  1  0  0  0  0
  6 14  1  0  0  0  0
  6 15  1  0  0  0  0
  8 16  1  0  0  0  0
  9 17  1  0  0  0  0
  9 18  1  0  0  0  0
  9 19  1  0  0  0  0
 10 20  1  0  0  0  0
 10 21  1  0  0  0  0
 10 22  1  0  0  0  0
M  END
>  <id_input>
1159

>  <InChIKey>
CTQMWJKOPOFOSX-UHFFFAOYSA-N

>  <substance_name>
-

>  <casrn>
19444-21-4

>  <Molecular weight>
144.1683807373047

>  <guideline>
OECD Guideline 404 (Acute Dermal Irritation / Corrosion)

>  <species>
rabbit

>  <type_of_coverage>
occlusive

>  <max_duration(hrs)>
4.0

>  <vehicle>
unchanged (no vehicle)

>  <edema/ erythema score>
1.0

>  <max_score>
1.0

>  <reversibility>
0.0

>  <Outcome>
0

>  <StandardizerResult>
Remove Explicit Hydrogens (ID: RemoveExplicitH)
Clear Stereo (ID: ClearStereo)
Wedge Clean (ID: WedgeClean)
Mesomerize (ID: Mesomerize)
Tautomerize (ID: Tautomerize)
Add Explicit Hydrogens (ID: AddExplicitH)
Neutralize (ID: Neutralize)
Clean 2D (ID: Clean2D)


$$$$

  Mrv1812 02121911042D          

 28 28  0  0  0  0            999 V2000
    4.3318   -0.6406    0.0000 O   0  0  0  0  0  0  0  0  0  0  0  0
    3.6173   -0.2281    0.0000 S   0  0  0  0  0  0  0  0  0  0  0  0
    4.0298    0.4864    0.0000 O   0  0  0  0  0  0  0  0  0  0  0  0
    3.2048   -0.9426    0.0000 O   0  0  0  0  0  0  0  0  0  0  0  0
    2.9028    0.1844    0.0000 C   0  0  0  0  0  0  0  0  0  0  0  0
    2.1884   -0.2281    0.0000 C   0  0  0  0  0  0  0  0  0  0  0  0
    1.4739    0.1844    0.0000 C   0  0  0  0  0  0  0  0  0  0  0  0
    0.7594   -0.2281    0.0000 N   0  0  0  0  0  0  0  0  0  0  0  0
    0.0449    0.1844    0.0000 C   0  0  0  0  0  0  0  0  0  0  0  0
   -0.6695   -0.2281    0.0000 C   0  0  0  0  0  0  0  0  0  0  0  0
   -0.6695   -1.0531    0.0000 O   0  0  0  0  0  0  0  0  0  0  0  0
    0.0449   -1.4656    0.0000 C   0  0  0  0  0  0  0  0  0  0  0  0
    0.7594   -1.0531    0.0000 C   0  0  0  0  0  0  0  0  0  0  0  0
    4.3318   -1.4656    0.0000 H   0  0  0  0  0  0  0  0  0  0  0  0
    3.2731    0.9217    0.0000 H   0  0  0  0  0  0  0  0  0  0  0  0
    2.5326    0.9217    0.0000 H   0  0  0  0  0  0  0  0  0  0  0  0
    1.8181   -0.9653    0.0000 H   0  0  0  0  0  0  0  0  0  0  0  0
    2.5586   -0.9653    0.0000 H   0  0  0  0  0  0  0  0  0  0  0  0
    1.8441    0.9217    0.0000 H   0  0  0  0  0  0  0  0  0  0  0  0
    1.1036    0.9217    0.0000 H   0  0  0  0  0  0  0  0  0  0  0  0
    0.4152    0.9217    0.0000 H   0  0  0  0  0  0  0  0  0  0  0  0
   -0.3253    0.9217    0.0000 H   0  0  0  0  0  0  0  0  0  0  0  0
   -1.1229    0.4612    0.0000 H   0  0  0  0  0  0  0  0  0  0  0  0
   -1.4931   -0.1801    0.0000 H   0  0  0  0  0  0  0  0  0  0  0  0
   -0.3253   -2.2028    0.0000 H   0  0  0  0  0  0  0  0  0  0  0  0
    0.4152   -2.2028    0.0000 H   0  0  0  0  0  0  0  0  0  0  0  0
    1.2128   -1.7424    0.0000 H   0  0  0  0  0  0  0  0  0  0  0  0
    1.5830   -1.1011    0.0000 H   0  0  0  0  0  0  0  0  0  0  0  0
  1  2  1  0  0  0  0
  2  3  2  0  0  0  0
  2  4  2  0  0  0  0
  2  5  1  0  0  0  0
  5  6  1  0  0  0  0
  6  7  1  0  0  0  0
  7  8  1  0  0  0  0
  9  8  1  0  0  0  0
 10  9  1  0  0  0  0
 11 10  1  0  0  0  0
 12 11  1  0  0  0  0
 13 12  1  0  0  0  0
  8 13  1  0  0  0  0
  1 14  1  0  0  0  0
  5 15  1  0  0  0  0
  5 16  1  0  0  0  0
  6 17  1  0  0  0  0
  6 18  1  0  0  0  0
  7 19  1  0  0  0  0
  7 20  1  0  0  0  0
  9 21  1  0  0  0  0
  9 22  1  0  0  0  0
 10 23  1  0  0  0  0
 10 24  1  0  0  0  0
 12 25  1  0  0  0  0
 12 26  1  0  0  0  0
 13 27  1  0  0  0  0
 13 28  1  0  0  0  0
M  END
>  <id_input>
2702

>  <InChIKey>
DVLFYONBTKHTER-UHFFFAOYSA-N

>  <substance_name>
3-(morpholin-4-yl)propane-1-sulfonic acid

>  <casrn>
1132-61-2

>  <Molecular weight>
209.2633056640625

>  <guideline>
EU Method B.4 (Acute Toxicity: Dermal Irritation / Corrosion)

>  <species>
rabbit

>  <type_of_coverage>
semiocclusive

>  <max_duration(hrs)>
4.0

>  <vehicle>
water

>  <edema/ erythema score>
0.0

>  <max_score>
0.0

>  <reversibility>
0.0

>  <Outcome>
0

>  <StandardizerResult>
Remove Explicit Hydrogens (ID: RemoveExplicitH)
Clear Stereo (ID: ClearStereo)
Wedge Clean (ID: WedgeClean)
Mesomerize (ID: Mesomerize)
Tautomerize (ID: Tautomerize)
Add Explicit Hydrogens (ID: AddExplicitH)
Neutralize (ID: Neutralize)
Clean 2D (ID: Clean2D)


$$$$

  Mrv1812 02121911042D          

 13 13  0  0  0  0            999 V2000
    1.4822    0.5152    0.0000 O   0  0  0  0  0  0  0  0  0  0  0  0
    0.6975    0.2602    0.0000 C   0  0  0  0  0  0  0  0  0  0  0  0
    0.0301    0.7451    0.0000 C   0  0  0  0  0  0  0  0  0  0  0  0
   -0.6373    0.2602    0.0000 C   0  0  0  0  0  0  0  0  0  0  0  0
   -0.3824   -0.5244    0.0000 C   0  0  0  0  0  0  0  0  0  0  0  0
    0.4426   -0.5244    0.0000 N   0  0  0  0  0  0  0  0  0  0  0  0
    0.4174    1.4736    0.0000 H   0  0  0  0  0  0  0  0  0  0  0  0
   -0.3572    1.4736    0.0000 H   0  0  0  0  0  0  0  0  0  0  0  0
   -1.2104    0.8537    0.0000 H   0  0  0  0  0  0  0  0  0  0  0  0
   -1.4498    0.1170    0.0000 H   0  0  0  0  0  0  0  0  0  0  0  0
   -1.1239   -0.8861    0.0000 H   0  0  0  0  0  0  0  0  0  0  0  0
   -0.4972   -1.3414    0.0000 H   0  0  0  0  0  0  0  0  0  0  0  0
    0.9275   -1.1918    0.0000 H   0  0  0  0  0  0  0  0  0  0  0  0
  1  2  2  0  0  0  0
  3  2  1  0  0  0  0
  4  3  1  0  0  0  0
  5  4  1  0  0  0  0
  6  5  1  0  0  0  0
  2  6  1  0  0  0  0
  3  7  1  0  0  0  0
  3  8  1  0  0  0  0
  4  9  1  0  0  0  0
  4 10  1  0  0  0  0
  5 11  1  0  0  0  0
  5 12  1  0  0  0  0
  6 13  1  0  0  0  0
M  END
>  <id_input>
4853

>  <InChIKey>
HNJBEVLQSNELDL-UHFFFAOYSA-N

>  <substance_name>
pyrrolidin-2-one

>  <casrn>
616-45-5

>  <Molecular weight>
85.10447692871094

>  <guideline>
OECD Guideline 404 (Acute Dermal Irritation / Corrosion)

>  <species>
rabbit

>  <type_of_coverage>
semiocclusive

>  <max_duration(hrs)>
4.0

>  <vehicle>
unchanged (no vehicle)

>  <edema/ erythema score>
0.25

>  <max_score>
4.0

>  <reversibility>
0.0

>  <Outcome>
0

>  <StandardizerResult>
Remove Explicit Hydrogens (ID: RemoveExplicitH)
Clear Stereo (ID: ClearStereo)
Wedge Clean (ID: WedgeClean)
Mesomerize (ID: Mesomerize)
Tautomerize (ID: Tautomerize)
Add Explicit Hydrogens (ID: AddExplicitH)
Neutralize (ID: Neutralize)
Clean 2D (ID: Clean2D)


$$$$

  Mrv1812 02121911042D          

 25 25  0  0  0  0            999 V2000
    2.6563    1.0548    0.0000 C   0  0  0  0  0  0  0  0  0  0  0  0
    1.9419    0.6423    0.0000 C   0  0  0  0  0  0  0  0  0  0  0  0
    1.5294    1.3568    0.0000 C   0  0  0  0  0  0  0  0  0  0  0  0
    2.3544   -0.0722    0.0000 C   0  0  0  0  0  0  0  0  0  0  0  0
    1.2274    0.2298    0.0000 C   0  0  0  0  0  0  0  0  0  0  0  0
    0.5129    0.6423    0.0000 C   0  0  0  0  0  0  0  0  0  0  0  0
   -0.2016    0.2298    0.0000 C   0  0  0  0  0  0  0  0  0  0  0  0
   -0.2016   -0.5952    0.0000 C   0  0  0  0  0  0  0  0  0  0  0  0
    0.5129   -1.0077    0.0000 C   0  0  0  0  0  0  0  0  0  0  0  0
    1.2274   -0.5952    0.0000 C   0  0  0  0  0  0  0  0  0  0  0  0
   -0.9160   -1.0077    0.0000 C   0  0  0  0  0  0  0  0  0  0  0  0
   -1.6305   -1.4202    0.0000 N   0  0  0  0  0  0  0  0  0  0  0  0
    3.0688    0.3403    0.0000 H   0  0  0  0  0  0  0  0  0  0  0  0
    3.3708    1.4673    0.0000 H   0  0  0  0  0  0  0  0  0  0  0  0
    2.2438    1.7693    0.0000 H   0  0  0  0  0  0  0  0  0  0  0  0
    1.4217    2.1747    0.0000 H   0  0  0  0  0  0  0  0  0  0  0  0
    0.7325    1.5703    0.0000 H   0  0  0  0  0  0  0  0  0  0  0  0
    1.0271    0.7023    0.0000 H   0  0  0  0  0  0  0  0  0  0  0  0
    1.5364   -0.1798    0.0000 H   0  0  0  0  0  0  0  0  0  0  0  0
    2.1408   -0.8691    0.0000 H   0  0  0  0  0  0  0  0  0  0  0  0
    3.0089   -0.5744    0.0000 H   0  0  0  0  0  0  0  0  0  0  0  0
   -0.1489    1.1348    0.0000 H   0  0  0  0  0  0  0  0  0  0  0  0
   -1.0262    0.2538    0.0000 H   0  0  0  0  0  0  0  0  0  0  0  0
    0.5129   -1.8327    0.0000 H   0  0  0  0  0  0  0  0  0  0  0  0
    1.3230   -1.4146    0.0000 H   0  0  0  0  0  0  0  0  0  0  0  0
  1  2  1  0  0  0  0
  2  3  1  0  0  0  0
  2  4  1  0  0  0  0
  2  5  1  0  0  0  0
  6  5  4  0  0  0  0
  7  6  4  0  0  0  0
  8  7  4  0  0  0  0
  9  8  4  0  0  0  0
 10  9  4  0  0  0  0
  8 11  1  0  0  0  0
 11 12  3  0  0  0  0
  5 10  4  0  0  0  0
  1 13  1  0  0  0  0
  1 14  1  0  0  0  0
  1 15  1  0  0  0  0
  3 16  1  0  0  0  0
  3 17  1  0  0  0  0
  3 18  1  0  0  0  0
  4 19  1  0  0  0  0
  4 20  1  0  0  0  0
  4 21  1  0  0  0  0
  6 22  1  0  0  0  0
  7 23  1  0  0  0  0
  9 24  1  0  0  0  0
 10 25  1  0  0  0  0
M  END
>  <id_input>
2930

>  <InChIKey>
IIZURLNRIMKEDL-UHFFFAOYSA-N

>  <substance_name>
4-tert-butylbenzonitrile

>  <casrn>
4210-32-6

>  <Molecular weight>
159.22763061523438

>  <guideline>
OECD Guideline 404 (Acute Dermal Irritation / Corrosion)

>  <species>
rabbit

>  <type_of_coverage>
semiocclusive

>  <max_duration(hrs)>
4.0

>  <vehicle>
unchanged (no vehicle)

>  <edema/ erythema score>
0.5

>  <max_score>
4.0

>  <reversibility>
0.0

>  <Outcome>
0

>  <StandardizerResult>
Remove Explicit Hydrogens (ID: RemoveExplicitH)
Dearomatize (ID: Dearomatize)
Clear Stereo (ID: ClearStereo)
Wedge Clean (ID: WedgeClean)
Mesomerize (ID: Mesomerize)
Tautomerize (ID: Tautomerize)
Aromatize (ID: Aromatize)
Add Explicit Hydrogens (ID: AddExplicitH)
Neutralize (ID: Neutralize)
Clean 2D (ID: Clean2D)


$$$$

  Mrv1812 02121911042D          

 44 46  0  0  0  0            999 V2000
    3.4597    1.0427    0.0000 O   0  0  0  0  0  0  0  0  0  0  0  0
    2.7452    1.4552    0.0000 C   0  0  0  0  0  0  0  0  0  0  0  0
    2.0307    1.8677    0.0000 N   0  0  0  0  0  0  0  0  0  0  0  0
    1.3162    1.4552    0.0000 C   0  0  0  0  0  0  0  0  0  0  0  0
    0.6018    1.8677    0.0000 C   0  0  0  0  0  0  0  0  0  0  0  0
   -0.1127    1.4552    0.0000 C   0  0  0  0  0  0  0  0  0  0  0  0
   -0.1127    0.6302    0.0000 C   0  0  0  0  0  0  0  0  0  0  0  0
   -0.8272    0.2177    0.0000 O   0  0  0  0  0  0  0  0  0  0  0  0
   -1.5416    0.6302    0.0000 P   0  0  0  0  0  0  0  0  0  0  0  0
   -1.1291    1.3447    0.0000 S   0  0  0  0  0  0  0  0  0  0  0  0
   -2.2561    1.0427    0.0000 O   0  0  0  0  0  0  0  0  0  0  0  0
   -2.2561    1.8677    0.0000 C   0  0  0  0  0  0  0  0  0  0  0  0
   -1.5416    2.2802    0.0000 C   0  0  0  0  0  0  0  0  0  0  0  0
   -1.5416    3.1052    0.0000 C   0  0  0  0  0  0  0  0  0  0  0  0
   -2.2561    3.5177    0.0000 C   0  0  0  0  0  0  0  0  0  0  0  0
   -2.9706    3.1052    0.0000 C   0  0  0  0  0  0  0  0  0  0  0  0
   -2.9706    2.2802    0.0000 C   0  0  0  0  0  0  0  0  0  0  0  0
   -2.2561    4.3427    0.0000 N   0  0  0  0  0  0  0  0  0  0  0  0
   -2.9706    4.7552    0.0000 C   0  0  0  0  0  0  0  0  0  0  0  0
   -3.6851    5.1677    0.0000 O   0  0  0  0  0  0  0  0  0  0  0  0
   -1.9541   -0.0842    0.0000 O   0  0  0  0  0  0  0  0  0  0  0  0
   -2.7791   -0.0842    0.0000 C   0  0  0  0  0  0  0  0  0  0  0  0
   -3.1916    0.6302    0.0000 C   0  0  0  0  0  0  0  0  0  0  0  0
   -4.0166    0.6302    0.0000 C   0  0  0  0  0  0  0  0  0  0  0  0
   -4.4291   -0.0842    0.0000 C   0  0  0  0  0  0  0  0  0  0  0  0
   -4.0166   -0.7987    0.0000 C   0  0  0  0  0  0  0  0  0  0  0  0
   -3.1916   -0.7987    0.0000 C   0  0  0  0  0  0  0  0  0  0  0  0
   -5.2541   -0.0842    0.0000 N   0  0  0  0  0  0  0  0  0  0  0  0
   -5.6666    0.6302    0.0000 C   0  0  0  0  0  0  0  0  0  0  0  0
   -6.0791    1.3447    0.0000 O   0  0  0  0  0  0  0  0  0  0  0  0
    0.6018    0.2177    0.0000 C   0  0  0  0  0  0  0  0  0  0  0  0
    1.3162    0.6302    0.0000 C   0  0  0  0  0  0  0  0  0  0  0  0
    0.6018    2.6927    0.0000 H   0  0  0  0  0  0  0  0  0  0  0  0
   -0.8272    1.8677    0.0000 H   0  0  0  0  0  0  0  0  0  0  0  0
   -0.8272    2.6927    0.0000 H   0  0  0  0  0  0  0  0  0  0  0  0
   -1.1291    3.8197    0.0000 H   0  0  0  0  0  0  0  0  0  0  0  0
   -3.6851    3.5177    0.0000 H   0  0  0  0  0  0  0  0  0  0  0  0
   -3.6851    1.8677    0.0000 H   0  0  0  0  0  0  0  0  0  0  0  0
   -2.7791    1.3447    0.0000 H   0  0  0  0  0  0  0  0  0  0  0  0
   -4.4291    1.3447    0.0000 H   0  0  0  0  0  0  0  0  0  0  0  0
   -4.4291   -1.5132    0.0000 H   0  0  0  0  0  0  0  0  0  0  0  0
   -2.7791   -1.5132    0.0000 H   0  0  0  0  0  0  0  0  0  0  0  0
    0.6018   -0.6073    0.0000 H   0  0  0  0  0  0  0  0  0  0  0  0
    2.0307    0.2177    0.0000 H   0  0  0  0  0  0  0  0  0  0  0  0
  1  2  2  0  0  0  0
  2  3  2  0  0  0  0
  3  4  1  4  0  0  0
  5  4  4  0  0  0  0
  6  5  4  0  0  0  0
  7  6  4  0  0  0  0
  7  8  1  0  0  0  0
  8  9  1  0  0  0  0
  9 10  2  0  0  0  0
  9 11  1  0  0  0  0
 11 12  1  0  0  0  0
 13 12  4  0  0  0  0
 14 13  4  0  0  0  0
 15 14  4  0  0  0  0
 16 15  4  0  0  0  0
 17 16  4  0  0  0  0
 18 15  1  4  0  0  0
 18 19  2  0  0  0  0
 19 20  2  0  0  0  0
  9 21  1  0  0  0  0
 21 22  1  0  0  0  0
 23 22  4  0  0  0  0
 24 23  4  0  0  0  0
 25 24  4  0  0  0  0
 26 25  4  0  0  0  0
 27 26  4  0  0  0  0
 28 25  1  4  0  0  0
 28 29  2  0  0  0  0
 29 30  2  0  0  0  0
 31  7  4  0  0  0  0
 32 31  4  0  0  0  0
  4 32  4  0  0  0  0
 12 17  4  0  0  0  0
 22 27  4  0  0  0  0
  5 33  1  0  0  0  0
  6 34  1  0  0  0  0
 13 35  1  0  0  0  0
 14 36  1  0  0  0  0
 16 37  1  0  0  0  0
 17 38  1  0  0  0  0
 23 39  1  0  0  0  0
 24 40  1  0  0  0  0
 26 41  1  0  0  0  0
 27 42  1  0  0  0  0
 31 43  1  0  0  0  0
 32 44  1  0  0  0  0
M  END
>  <id_input>
3923

>  <InChIKey>
KGLSETWPYVUTQX-UHFFFAOYSA-N

>  <substance_name>
bis(4-isocyanatophenyl) [(4-isocyanatophenyl)sulfanyl]phosphonate

>  <casrn>
4151-51-3

>  <Molecular weight>
465.375244140625

>  <guideline>
OECD Guideline 404 (Acute Dermal Irritation / Corrosion)

>  <species>
rabbit

>  <type_of_coverage>
semiocclusive

>  <max_duration(hrs)>
4.0

>  <vehicle>
unchanged (no vehicle)

>  <edema/ erythema score>
0.666666666666666

>  <max_score>
4.0

>  <reversibility>
0.0

>  <Outcome>
0

>  <StandardizerResult>
Remove Explicit Hydrogens (ID: RemoveExplicitH)
Dearomatize (ID: Dearomatize)
Clear Stereo (ID: ClearStereo)
Wedge Clean (ID: WedgeClean)
Mesomerize (ID: Mesomerize)
Tautomerize (ID: Tautomerize)
Aromatize (ID: Aromatize)
Add Explicit Hydrogens (ID: AddExplicitH)
Neutralize (ID: Neutralize)
Clean 2D (ID: Clean2D)


$$$$

  Mrv1812 02121911042D          

 24 23  0  0  0  0            999 V2000
   -2.5006    1.8562    0.0000 C   0  0  0  0  0  0  0  0  0  0  0  0
   -1.7862    2.2687    0.0000 N   0  0  0  0  0  0  0  0  0  0  0  0
   -1.7862    3.0937    0.0000 C   0  0  0  0  0  0  0  0  0  0  0  0
   -1.0717    1.8562    0.0000 C   0  0  0  0  0  0  0  0  0  0  0  0
   -1.0717    1.0312    0.0000 S   0  0  0  0  0  0  0  0  0  0  0  0
   -0.3572    2.2687    0.0000 S   0  0  0  0  0  0  0  0  0  0  0  0
    0.3572    1.8562    0.0000 S   0  0  0  0  0  0  0  0  0  0  0  0
    1.0717    2.2687    0.0000 C   0  0  0  0  0  0  0  0  0  0  0  0
    1.0717    3.0937    0.0000 S   0  0  0  0  0  0  0  0  0  0  0  0
    1.7862    1.8562    0.0000 N   0  0  0  0  0  0  0  0  0  0  0  0
    2.5006    2.2687    0.0000 C   0  0  0  0  0  0  0  0  0  0  0  0
    1.7862    1.0312    0.0000 C   0  0  0  0  0  0  0  0  0  0  0  0
   -2.9131    2.5707    0.0000 H   0  0  0  0  0  0  0  0  0  0  0  0
   -3.2151    1.4437    0.0000 H   0  0  0  0  0  0  0  0  0  0  0  0
   -2.0881    1.1417    0.0000 H   0  0  0  0  0  0  0  0  0  0  0  0
   -0.9612    3.0937    0.0000 H   0  0  0  0  0  0  0  0  0  0  0  0
   -1.7862    3.9187    0.0000 H   0  0  0  0  0  0  0  0  0  0  0  0
   -2.6112    3.0937    0.0000 H   0  0  0  0  0  0  0  0  0  0  0  0
    2.9131    1.5542    0.0000 H   0  0  0  0  0  0  0  0  0  0  0  0
    3.2151    2.6812    0.0000 H   0  0  0  0  0  0  0  0  0  0  0  0
    2.0881    2.9832    0.0000 H   0  0  0  0  0  0  0  0  0  0  0  0
    0.9612    1.0312    0.0000 H   0  0  0  0  0  0  0  0  0  0  0  0
    1.7862    0.2062    0.0000 H   0  0  0  0  0  0  0  0  0  0  0  0
    2.6112    1.0312    0.0000 H   0  0  0  0  0  0  0  0  0  0  0  0
  1  2  1  0  0  0  0
  2  3  1  0  0  0  0
  2  4  1  0  0  0  0
  4  5  2  0  0  0  0
  4  6  1  0  0  0  0
  6  7  1  0  0  0  0
  7  8  1  0  0  0  0
  8  9  2  0  0  0  0
  8 10  1  0  0  0  0
 10 11  1  0  0  0  0
 10 12  1  0  0  0  0
  1 13  1  0  0  0  0
  1 14  1  0  0  0  0
  1 15  1  0  0  0  0
  3 16  1  0  0  0  0
  3 17  1  0  0  0  0
  3 18  1  0  0  0  0
 11 19  1  0  0  0  0
 11 20  1  0  0  0  0
 11 21  1  0  0  0  0
 12 22  1  0  0  0  0
 12 23  1  0  0  0  0
 12 24  1  0  0  0  0
M  END
>  <id_input>
3827

>  <InChIKey>
KUAZQDVKQLNFPE-UHFFFAOYSA-N

>  <substance_name>
[disulfanediylbis(carbonothioylnitrilo)]tetramethane

>  <casrn>
137-26-8

>  <Molecular weight>
240.43287658691406

>  <guideline>
EPA OPP 81-5 (Acute Dermal Irritation)

>  <species>
rabbit

>  <type_of_coverage>
semiocclusive

>  <max_duration(hrs)>
4.0

>  <vehicle>
water

>  <edema/ erythema score>
0.16

>  <max_score>
1.0

>  <reversibility>
0.0

>  <Outcome>
0

>  <StandardizerResult>
Remove Explicit Hydrogens (ID: RemoveExplicitH)
Clear Stereo (ID: ClearStereo)
Wedge Clean (ID: WedgeClean)
Mesomerize (ID: Mesomerize)
Tautomerize (ID: Tautomerize)
Add Explicit Hydrogens (ID: AddExplicitH)
Neutralize (ID: Neutralize)
Clean 2D (ID: Clean2D)


$$$$

  Mrv1812 02121911042D          

 19 19  0  0  0  0            999 V2000
    2.1679    0.0203    0.0000 C   0  0  0  0  0  0  0  0  0  0  0  0
    1.4534    0.4328    0.0000 O   0  0  0  0  0  0  0  0  0  0  0  0
    0.7389    0.0203    0.0000 C   0  0  0  0  0  0  0  0  0  0  0  0
    0.0245    0.4328    0.0000 C   0  0  0  0  0  0  0  0  0  0  0  0
   -0.6900    0.0203    0.0000 C   0  0  0  0  0  0  0  0  0  0  0  0
   -1.4045    0.4328    0.0000 C   0  0  0  0  0  0  0  0  0  0  0  0
   -2.1190    0.0203    0.0000 O   0  0  0  0  0  0  0  0  0  0  0  0
   -0.6900   -0.8047    0.0000 C   0  0  0  0  0  0  0  0  0  0  0  0
    0.0245   -1.2172    0.0000 C   0  0  0  0  0  0  0  0  0  0  0  0
    0.7389   -0.8047    0.0000 C   0  0  0  0  0  0  0  0  0  0  0  0
    1.4534   -1.2172    0.0000 O   0  0  0  0  0  0  0  0  0  0  0  0
    1.7554   -0.6942    0.0000 H   0  0  0  0  0  0  0  0  0  0  0  0
    2.8823   -0.3922    0.0000 H   0  0  0  0  0  0  0  0  0  0  0  0
    2.5804    0.7348    0.0000 H   0  0  0  0  0  0  0  0  0  0  0  0
    0.0245    1.2578    0.0000 H   0  0  0  0  0  0  0  0  0  0  0  0
   -1.4045    1.2578    0.0000 H   0  0  0  0  0  0  0  0  0  0  0  0
   -1.4045   -1.2172    0.0000 H   0  0  0  0  0  0  0  0  0  0  0  0
    0.0245   -2.0422    0.0000 H   0  0  0  0  0  0  0  0  0  0  0  0
    1.6669   -2.0141    0.0000 H   0  0  0  0  0  0  0  0  0  0  0  0
  1  2  1  0  0  0  0
  2  3  1  0  0  0  0
  4  3  4  0  0  0  0
  5  4  4  0  0  0  0
  5  6  1  0  0  0  0
  6  7  2  0  0  0  0
  8  5  4  0  0  0  0
  9  8  4  0  0  0  0
 10  9  4  0  0  0  0
 10 11  1  0  0  0  0
  3 10  4  0  0  0  0
  1 12  1  0  0  0  0
  1 13  1  0  0  0  0
  1 14  1  0  0  0  0
  4 15  1  0  0  0  0
  6 16  1  0  0  0  0
  8 17  1  0  0  0  0
  9 18  1  0  0  0  0
 11 19  1  0  0  0  0
M  END
>  <id_input>
2900

>  <InChIKey>
MWOOGOJBHIARFG-UHFFFAOYSA-N

>  <substance_name>
4-hydroxy-3-methoxybenzaldehyde

>  <casrn>
121-33-5

>  <Molecular weight>
152.14732360839844

>  <guideline>
other: EU Method B.3 (Acute toxicity (dermal))

>  <species>
rat

>  <type_of_coverage>
semiocclusive

>  <max_duration(hrs)>
24.0

>  <vehicle>
water

>  <edema/ erythema score>
0.0

>  <max_score>
4.0

>  <reversibility>
0.0

>  <Outcome>
0

>  <StandardizerResult>
Remove Explicit Hydrogens (ID: RemoveExplicitH)
Dearomatize (ID: Dearomatize)
Clear Stereo (ID: ClearStereo)
Wedge Clean (ID: WedgeClean)
Mesomerize (ID: Mesomerize)
Tautomerize (ID: Tautomerize)
Aromatize (ID: Aromatize)
Add Explicit Hydrogens (ID: AddExplicitH)
Neutralize (ID: Neutralize)
Clean 2D (ID: Clean2D)


$$$$

  Mrv1812 02121911042D          

 34 34  0  0  0  0            999 V2000
   -1.0205    0.8145    0.0000 C   0  0  0  0  0  0  0  0  0  0  0  0
   -0.3061    1.2270    0.0000 C   0  0  0  0  0  0  0  0  0  0  0  0
    0.4084    0.8145    0.0000 C   0  0  0  0  0  0  0  0  0  0  0  0
    1.1229    1.2270    0.0000 C   0  0  0  0  0  0  0  0  0  0  0  0
    1.8373    0.8145    0.0000 O   0  0  0  0  0  0  0  0  0  0  0  0
    2.5518    1.2270    0.0000 C   0  0  0  0  0  0  0  0  0  0  0  0
    3.2663    0.8145    0.0000 C   0  0  0  0  0  0  0  0  0  0  0  0
    3.9808    1.2270    0.0000 O   0  0  0  0  0  0  0  0  0  0  0  0
    4.6952    0.8145    0.0000 C   0  0  0  0  0  0  0  0  0  0  0  0
    4.6952   -0.0105    0.0000 O   0  0  0  0  0  0  0  0  0  0  0  0
    5.4097    1.2270    0.0000 C   0  0  0  0  0  0  0  0  0  0  0  0
    6.1242    0.8145    0.0000 C   0  0  0  0  0  0  0  0  0  0  0  0
    6.8386    1.2270    0.0000 C   0  0  0  0  0  0  0  0  0  0  0  0
    6.8386    2.0520    0.0000 C   0  0  0  0  0  0  0  0  0  0  0  0
    6.1242    2.4645    0.0000 C   0  0  0  0  0  0  0  0  0  0  0  0
    5.4097    2.0520    0.0000 C   0  0  0  0  0  0  0  0  0  0  0  0
   -1.4330    1.5290    0.0000 H   0  0  0  0  0  0  0  0  0  0  0  0
   -1.7350    0.4020    0.0000 H   0  0  0  0  0  0  0  0  0  0  0  0
   -0.6080    0.1000    0.0000 H   0  0  0  0  0  0  0  0  0  0  0  0
    0.0642    1.9642    0.0000 H   0  0  0  0  0  0  0  0  0  0  0  0
   -0.6763    1.9642    0.0000 H   0  0  0  0  0  0  0  0  0  0  0  0
    0.0381    0.0772    0.0000 H   0  0  0  0  0  0  0  0  0  0  0  0
    0.7787    0.0772    0.0000 H   0  0  0  0  0  0  0  0  0  0  0  0
    1.4931    1.9642    0.0000 H   0  0  0  0  0  0  0  0  0  0  0  0
    0.7526    1.9642    0.0000 H   0  0  0  0  0  0  0  0  0  0  0  0
    2.9221    1.9642    0.0000 H   0  0  0  0  0  0  0  0  0  0  0  0
    2.1816    1.9642    0.0000 H   0  0  0  0  0  0  0  0  0  0  0  0
    2.8960    0.0772    0.0000 H   0  0  0  0  0  0  0  0  0  0  0  0
    3.6365    0.0772    0.0000 H   0  0  0  0  0  0  0  0  0  0  0  0
    6.1242   -0.0105    0.0000 H   0  0  0  0  0  0  0  0  0  0  0  0
    7.5531    0.8145    0.0000 H   0  0  0  0  0  0  0  0  0  0  0  0
    7.5531    2.4645    0.0000 H   0  0  0  0  0  0  0  0  0  0  0  0
    6.1242    3.2895    0.0000 H   0  0  0  0  0  0  0  0  0  0  0  0
    4.6952    2.4645    0.0000 H   0  0  0  0  0  0  0  0  0  0  0  0
  1  2  1  0  0  0  0
  2  3  1  0  0  0  0
  3  4  1  0  0  0  0
  4  5  1  0  0  0  0
  5  6  1  0  0  0  0
  6  7  1  0  0  0  0
  7  8  1  0  0  0  0
  8  9  1  0  0  0  0
  9 10  2  0  0  0  0
  9 11  1  0  0  0  0
 12 11  4  0  0  0  0
 13 12  4  0  0  0  0
 14 13  4  0  0  0  0
 15 14  4  0  0  0  0
 16 15  4  0  0  0  0
 11 16  4  0  0  0  0
  1 17  1  0  0  0  0
  1 18  1  0  0  0  0
  1 19  1  0  0  0  0
  2 20  1  0  0  0  0
  2 21  1  0  0  0  0
  3 22  1  0  0  0  0
  3 23  1  0  0  0  0
  4 24  1  0  0  0  0
  4 25  1  0  0  0  0
  6 26  1  0  0  0  0
  6 27  1  0  0  0  0
  7 28  1  0  0  0  0
  7 29  1  0  0  0  0
 12 30  1  0  0  0  0
 13 31  1  0  0  0  0
 14 32  1  0  0  0  0
 15 33  1  0  0  0  0
 16 34  1  0  0  0  0
M  END
>  <id_input>
2412

>  <InChIKey>
NMBQBIACXMPEQB-UHFFFAOYSA-N

>  <substance_name>
2-butoxyethyl benzoate

>  <casrn>
5451-76-3

>  <Molecular weight>
222.2802276611328

>  <guideline>
OECD Guideline 404 (Acute Dermal Irritation / Corrosion)

>  <species>
rabbit

>  <type_of_coverage>
semiocclusive

>  <max_duration(hrs)>
4.0

>  <vehicle>
unchanged (no vehicle)

>  <edema/ erythema score>
1.0

>  <max_score>
1.0

>  <reversibility>
0.0

>  <Outcome>
0

>  <StandardizerResult>
Remove Explicit Hydrogens (ID: RemoveExplicitH)
Dearomatize (ID: Dearomatize)
Clear Stereo (ID: ClearStereo)
Wedge Clean (ID: WedgeClean)
Mesomerize (ID: Mesomerize)
Tautomerize (ID: Tautomerize)
Aromatize (ID: Aromatize)
Add Explicit Hydrogens (ID: AddExplicitH)
Neutralize (ID: Neutralize)
Clean 2D (ID: Clean2D)


$$$$

  Mrv1812 02121911042D          

 31 32  0  0  0  0            999 V2000
   -0.5438   -1.4450    0.0000 O   0  0  0  0  0  0  0  0  0  0  0  0
   -0.5438   -2.2700    0.0000 C   0  0  0  0  0  0  0  0  0  0  0  0
    0.1706   -2.6825    0.0000 O   0  0  0  0  0  0  0  0  0  0  0  0
    0.8851   -2.2700    0.0000 C   0  0  0  0  0  0  0  0  0  0  0  0
    1.5996   -2.6825    0.0000 C   0  0  0  0  0  0  0  0  0  0  0  0
    2.3140   -2.2700    0.0000 C   0  0  0  0  0  0  0  0  0  0  0  0
    3.0285   -2.6825    0.0000 C   0  0  0  0  0  0  0  0  0  0  0  0
    3.7430   -2.2700    0.0000 C   0  0  0  0  0  0  0  0  0  0  0  0
    3.7430   -1.4450    0.0000 C   0  0  0  0  0  0  0  0  0  0  0  0
    3.0285   -1.0325    0.0000 C   0  0  0  0  0  0  0  0  0  0  0  0
    2.3140   -1.4450    0.0000 C   0  0  0  0  0  0  0  0  0  0  0  0
   -1.2583   -2.6825    0.0000 C   0  0  0  0  0  0  0  0  0  0  0  0
   -1.9728   -2.2700    0.0000 C   0  0  0  0  0  0  0  0  0  0  0  0
   -2.6873   -2.6825    0.0000 C   0  0  0  0  0  0  0  0  0  0  0  0
   -2.6873   -3.5075    0.0000 C   0  0  0  0  0  0  0  0  0  0  0  0
   -1.9728   -3.9200    0.0000 C   0  0  0  0  0  0  0  0  0  0  0  0
   -1.2583   -3.5075    0.0000 C   0  0  0  0  0  0  0  0  0  0  0  0
    1.2554   -1.5328    0.0000 H   0  0  0  0  0  0  0  0  0  0  0  0
    0.5148   -1.5328    0.0000 H   0  0  0  0  0  0  0  0  0  0  0  0
    1.2293   -3.4197    0.0000 H   0  0  0  0  0  0  0  0  0  0  0  0
    1.9698   -3.4197    0.0000 H   0  0  0  0  0  0  0  0  0  0  0  0
    3.0285   -3.5075    0.0000 H   0  0  0  0  0  0  0  0  0  0  0  0
    4.4575   -2.6825    0.0000 H   0  0  0  0  0  0  0  0  0  0  0  0
    4.4575   -1.0325    0.0000 H   0  0  0  0  0  0  0  0  0  0  0  0
    3.0285   -0.2075    0.0000 H   0  0  0  0  0  0  0  0  0  0  0  0
    1.5996   -1.0325    0.0000 H   0  0  0  0  0  0  0  0  0  0  0  0
   -1.9728   -1.4450    0.0000 H   0  0  0  0  0  0  0  0  0  0  0  0
   -3.4017   -2.2700    0.0000 H   0  0  0  0  0  0  0  0  0  0  0  0
   -3.4017   -3.9200    0.0000 H   0  0  0  0  0  0  0  0  0  0  0  0
   -1.9728   -4.7450    0.0000 H   0  0  0  0  0  0  0  0  0  0  0  0
   -0.5438   -3.9200    0.0000 H   0  0  0  0  0  0  0  0  0  0  0  0
  1  2  2  0  0  0  0
  2  3  1  0  0  0  0
  3  4  1  0  0  0  0
  4  5  1  0  0  0  0
  5  6  1  0  0  0  0
  7  6  4  0  0  0  0
  8  7  4  0  0  0  0
  9  8  4  0  0  0  0
 10  9  4  0  0  0  0
 11 10  4  0  0  0  0
  2 12  1  0  0  0  0
 13 12  4  0  0  0  0
 14 13  4  0  0  0  0
 15 14  4  0  0  0  0
 16 15  4  0  0  0  0
 17 16  4  0  0  0  0
  6 11  4  0  0  0  0
 12 17  4  0  0  0  0
  4 18  1  0  0  0  0
  4 19  1  0  0  0  0
  5 20  1  0  0  0  0
  5 21  1  0  0  0  0
  7 22  1  0  0  0  0
  8 23  1  0  0  0  0
  9 24  1  0  0  0  0
 10 25  1  0  0  0  0
 11 26  1  0  0  0  0
 13 27  1  0  0  0  0
 14 28  1  0  0  0  0
 15 29  1  0  0  0  0
 16 30  1  0  0  0  0
 17 31  1  0  0  0  0
M  END
>  <id_input>
2597

>  <InChIKey>
OSORMYZMWHVFOZ-UHFFFAOYSA-N

>  <substance_name>
2-phenylethyl benzoate

>  <casrn>
94-47-3

>  <Molecular weight>
226.2704620361328

>  <guideline>
OECD Guideline 404 (Acute Dermal Irritation / Corrosion)

>  <species>
rabbit

>  <type_of_coverage>
occlusive

>  <max_duration(hrs)>
4.0

>  <vehicle>
unchanged (no vehicle)

>  <edema/ erythema score>
0.5

>  <max_score>
4.0

>  <reversibility>
0.0

>  <Outcome>
0

>  <StandardizerResult>
Remove Explicit Hydrogens (ID: RemoveExplicitH)
Dearomatize (ID: Dearomatize)
Clear Stereo (ID: ClearStereo)
Wedge Clean (ID: WedgeClean)
Mesomerize (ID: Mesomerize)
Tautomerize (ID: Tautomerize)
Aromatize (ID: Aromatize)
Add Explicit Hydrogens (ID: AddExplicitH)
Neutralize (ID: Neutralize)
Clean 2D (ID: Clean2D)


$$$$

  Mrv1812 02121911042D          

 66 65  0  0  0  0            999 V2000
  -10.1679   -2.0894    0.0000 C   0  0  0  0  0  0  0  0  0  0  0  0
   -9.4535   -1.6769    0.0000 C   0  0  0  0  0  0  0  0  0  0  0  0
   -8.7390   -2.0894    0.0000 C   0  0  0  0  0  0  0  0  0  0  0  0
   -8.0245   -1.6769    0.0000 C   0  0  0  0  0  0  0  0  0  0  0  0
   -7.3100   -2.0894    0.0000 C   0  0  0  0  0  0  0  0  0  0  0  0
   -6.5956   -1.6769    0.0000 C   0  0  0  0  0  0  0  0  0  0  0  0
   -5.8811   -2.0894    0.0000 C   0  0  0  0  0  0  0  0  0  0  0  0
   -5.1666   -1.6769    0.0000 C   0  0  0  0  0  0  0  0  0  0  0  0
   -4.4522   -2.0894    0.0000 C   0  0  0  0  0  0  0  0  0  0  0  0
   -3.7377   -1.6769    0.0000 C   0  0  0  0  0  0  0  0  0  0  0  0
   -3.0232   -2.0894    0.0000 C   0  0  0  0  0  0  0  0  0  0  0  0
   -2.3088   -1.6769    0.0000 C   0  0  0  0  0  0  0  0  0  0  0  0
   -1.5943   -2.0894    0.0000 C   0  0  0  0  0  0  0  0  0  0  0  0
   -0.8798   -1.6769    0.0000 C   0  0  0  0  0  0  0  0  0  0  0  0
   -0.1653   -2.0894    0.0000 C   0  0  0  0  0  0  0  0  0  0  0  0
    0.5491   -1.6769    0.0000 C   0  0  0  0  0  0  0  0  0  0  0  0
    1.2636   -2.0894    0.0000 C   0  0  0  0  0  0  0  0  0  0  0  0
    1.9781   -1.6769    0.0000 C   0  0  0  0  0  0  0  0  0  0  0  0
    2.6925   -2.0894    0.0000 C   0  0  0  0  0  0  0  0  0  0  0  0
    3.4070   -1.6769    0.0000 C   0  0  0  0  0  0  0  0  0  0  0  0
    4.1215   -2.0894    0.0000 C   0  0  0  0  0  0  0  0  0  0  0  0
    4.8360   -1.6769    0.0000 O   0  0  0  0  0  0  0  0  0  0  0  0
    4.1215   -2.9144    0.0000 O   0  0  0  0  0  0  0  0  0  0  0  0
    2.6925   -2.9144    0.0000 C   0  0  0  0  0  0  0  0  0  0  0  0
    3.4070   -3.3269    0.0000 O   0  0  0  0  0  0  0  0  0  0  0  0
    1.9781   -3.3269    0.0000 O   0  0  0  0  0  0  0  0  0  0  0  0
  -10.5804   -1.3749    0.0000 H   0  0  0  0  0  0  0  0  0  0  0  0
  -10.8824   -2.5019    0.0000 H   0  0  0  0  0  0  0  0  0  0  0  0
   -9.7554   -2.8039    0.0000 H   0  0  0  0  0  0  0  0  0  0  0  0
   -9.0832   -0.9396    0.0000 H   0  0  0  0  0  0  0  0  0  0  0  0
   -9.8237   -0.9396    0.0000 H   0  0  0  0  0  0  0  0  0  0  0  0
   -9.1093   -2.8266    0.0000 H   0  0  0  0  0  0  0  0  0  0  0  0
   -8.3687   -2.8266    0.0000 H   0  0  0  0  0  0  0  0  0  0  0  0
   -7.6543   -0.9396    0.0000 H   0  0  0  0  0  0  0  0  0  0  0  0
   -8.3948   -0.9396    0.0000 H   0  0  0  0  0  0  0  0  0  0  0  0
   -7.6803   -2.8266    0.0000 H   0  0  0  0  0  0  0  0  0  0  0  0
   -6.9398   -2.8266    0.0000 H   0  0  0  0  0  0  0  0  0  0  0  0
   -6.2253   -0.9396    0.0000 H   0  0  0  0  0  0  0  0  0  0  0  0
   -6.9658   -0.9396    0.0000 H   0  0  0  0  0  0  0  0  0  0  0  0
   -6.2514   -2.8266    0.0000 H   0  0  0  0  0  0  0  0  0  0  0  0
   -5.5108   -2.8266    0.0000 H   0  0  0  0  0  0  0  0  0  0  0  0
   -4.7964   -0.9396    0.0000 H   0  0  0  0  0  0  0  0  0  0  0  0
   -5.5369   -0.9396    0.0000 H   0  0  0  0  0  0  0  0  0  0  0  0
   -4.8224   -2.8266    0.0000 H   0  0  0  0  0  0  0  0  0  0  0  0
   -4.0819   -2.8266    0.0000 H   0  0  0  0  0  0  0  0  0  0  0  0
   -3.3674   -0.9396    0.0000 H   0  0  0  0  0  0  0  0  0  0  0  0
   -4.1080   -0.9396    0.0000 H   0  0  0  0  0  0  0  0  0  0  0  0
   -3.3935   -2.8266    0.0000 H   0  0  0  0  0  0  0  0  0  0  0  0
   -2.6530   -2.8266    0.0000 H   0  0  0  0  0  0  0  0  0  0  0  0
   -1.9385   -0.9396    0.0000 H   0  0  0  0  0  0  0  0  0  0  0  0
   -2.6790   -0.9396    0.0000 H   0  0  0  0  0  0  0  0  0  0  0  0
   -1.9645   -2.8266    0.0000 H   0  0  0  0  0  0  0  0  0  0  0  0
   -1.2240   -2.8266    0.0000 H   0  0  0  0  0  0  0  0  0  0  0  0
   -0.5096   -0.9396    0.0000 H   0  0  0  0  0  0  0  0  0  0  0  0
   -1.2501   -0.9396    0.0000 H   0  0  0  0  0  0  0  0  0  0  0  0
   -0.5356   -2.8266    0.0000 H   0  0  0  0  0  0  0  0  0  0  0  0
    0.2049   -2.8266    0.0000 H   0  0  0  0  0  0  0  0  0  0  0  0
    0.5491   -0.8519    0.0000 H   0  0  0  0  0  0  0  0  0  0  0  0
    1.2636   -2.9144    0.0000 H   0  0  0  0  0  0  0  0  0  0  0  0
    2.3483   -0.9396    0.0000 H   0  0  0  0  0  0  0  0  0  0  0  0
    1.6078   -0.9396    0.0000 H   0  0  0  0  0  0  0  0  0  0  0  0
    2.6925   -1.2644    0.0000 H   0  0  0  0  0  0  0  0  0  0  0  0
    4.0390   -1.1466    0.0000 H   0  0  0  0  0  0  0  0  0  0  0  0
    3.5503   -0.8644    0.0000 H   0  0  0  0  0  0  0  0  0  0  0  0
    5.6605   -1.7031    0.0000 H   0  0  0  0  0  0  0  0  0  0  0  0
    3.4070   -4.1519    0.0000 H   0  0  0  0  0  0  0  0  0  0  0  0
  1  2  1  0  0  0  0
  2  3  1  0  0  0  0
  3  4  1  0  0  0  0
  4  5  1  0  0  0  0
  5  6  1  0  0  0  0
  6  7  1  0  0  0  0
  7  8  1  0  0  0  0
  8  9  1  0  0  0  0
  9 10  1  0  0  0  0
 10 11  1  0  0  0  0
 11 12  1  0  0  0  0
 12 13  1  0  0  0  0
 13 14  1  0  0  0  0
 14 15  1  0  0  0  0
 16 15  1  4  0  0  0
 16 17  2  0  0  0  0
 17 18  1  0  0  0  0
 18 19  1  0  0  0  0
 19 20  1  0  0  0  0
 20 21  1  0  0  0  0
 21 22  1  0  0  0  0
 21 23  2  0  0  0  0
 19 24  1  0  0  0  0
 24 25  1  0  0  0  0
 24 26  2  0  0  0  0
  1 27  1  0  0  0  0
  1 28  1  0  0  0  0
  1 29  1  0  0  0  0
  2 30  1  0  0  0  0
  2 31  1  0  0  0  0
  3 32  1  0  0  0  0
  3 33  1  0  0  0  0
  4 34  1  0  0  0  0
  4 35  1  0  0  0  0
  5 36  1  0  0  0  0
  5 37  1  0  0  0  0
  6 38  1  0  0  0  0
  6 39  1  0  0  0  0
  7 40  1  0  0  0  0
  7 41  1  0  0  0  0
  8 42  1  0  0  0  0
  8 43  1  0  0  0  0
  9 44  1  0  0  0  0
  9 45  1  0  0  0  0
 10 46  1  0  0  0  0
 10 47  1  0  0  0  0
 11 48  1  0  0  0  0
 11 49  1  0  0  0  0
 12 50  1  0  0  0  0
 12 51  1  0  0  0  0
 13 52  1  0  0  0  0
 13 53  1  0  0  0  0
 14 54  1  0  0  0  0
 14 55  1  0  0  0  0
 15 56  1  0  0  0  0
 15 57  1  0  0  0  0
 16 58  1  0  0  0  0
 17 59  1  0  0  0  0
 18 60  1  0  0  0  0
 18 61  1  0  0  0  0
 19 62  1  0  0  0  0
 20 63  1  0  0  0  0
 20 64  1  0  0  0  0
 22 65  1  0  0  0  0
 25 66  1  0  0  0  0
M  END
>  <id_input>
4706

>  <InChIKey>
OVQJAEGJPUEXQD-UHFFFAOYSA-N

>  <substance_name>
octadec-2-enylsuccinic acid

>  <casrn>
68015-93-0

>  <Molecular weight>
368.55059814453125

>  <guideline>
OECD Guideline 404 (Acute Dermal Irritation / Corrosion)

>  <species>
rabbit

>  <type_of_coverage>
occlusive

>  <max_duration(hrs)>
4.0

>  <vehicle>
unchanged (no vehicle)

>  <edema/ erythema score>
0.0

>  <max_score>
0.0

>  <reversibility>
0.0

>  <Outcome>
0

>  <StandardizerResult>
Remove Explicit Hydrogens (ID: RemoveExplicitH)
Clear Stereo (ID: ClearStereo)
Wedge Clean (ID: WedgeClean)
Mesomerize (ID: Mesomerize)
Tautomerize (ID: Tautomerize)
Add Explicit Hydrogens (ID: AddExplicitH)
Neutralize (ID: Neutralize)
Clean 2D (ID: Clean2D)


$$$$

  Mrv1812 02121911042D          

 47 48  0  0  0  0            999 V2000
   -0.5244   -3.1949    0.0000 C   0  0  0  0  0  0  0  0  0  0  0  0
   -1.2389   -2.7824    0.0000 C   0  0  0  0  0  0  0  0  0  0  0  0
   -1.2389   -1.9574    0.0000 O   0  0  0  0  0  0  0  0  0  0  0  0
   -1.9533   -1.5449    0.0000 Si  0  0  0  0  0  4  0  0  0  0  0  0
   -2.6678   -1.1324    0.0000 C   0  0  0  0  0  0  0  0  0  0  0  0
   -2.6678   -0.3074    0.0000 C   0  0  0  0  0  0  0  0  0  0  0  0
   -3.3823    0.1051    0.0000 C   0  0  0  0  0  0  0  0  0  0  0  0
   -3.3823    0.9301    0.0000 C   0  0  0  0  0  0  0  0  0  0  0  0
   -4.0967    1.3426    0.0000 C   0  0  0  0  0  0  0  0  0  0  0  0
   -4.8112    0.9301    0.0000 C   0  0  0  0  0  0  0  0  0  0  0  0
   -5.5257    0.5176    0.0000 O   0  0  0  0  0  0  0  0  0  0  0  0
   -4.8112    0.1051    0.0000 C   0  0  0  0  0  0  0  0  0  0  0  0
   -4.0967   -0.3074    0.0000 C   0  0  0  0  0  0  0  0  0  0  0  0
   -1.5408   -0.8305    0.0000 O   0  0  0  0  0  0  0  0  0  0  0  0
   -1.9533   -0.1160    0.0000 C   0  0  0  0  0  0  0  0  0  0  0  0
   -1.5408    0.5985    0.0000 C   0  0  0  0  0  0  0  0  0  0  0  0
   -2.3658   -2.2594    0.0000 O   0  0  0  0  0  0  0  0  0  0  0  0
   -3.1908   -2.2594    0.0000 C   0  0  0  0  0  0  0  0  0  0  0  0
   -3.6033   -1.5449    0.0000 C   0  0  0  0  0  0  0  0  0  0  0  0
   -0.9369   -3.9094    0.0000 H   0  0  0  0  0  0  0  0  0  0  0  0
    0.1901   -3.6074    0.0000 H   0  0  0  0  0  0  0  0  0  0  0  0
   -0.1119   -2.4805    0.0000 H   0  0  0  0  0  0  0  0  0  0  0  0
   -2.0625   -2.8304    0.0000 H   0  0  0  0  0  0  0  0  0  0  0  0
   -1.6922   -3.4717    0.0000 H   0  0  0  0  0  0  0  0  0  0  0  0
   -3.4914   -1.1804    0.0000 H   0  0  0  0  0  0  0  0  0  0  0  0
   -3.1212   -1.8217    0.0000 H   0  0  0  0  0  0  0  0  0  0  0  0
   -2.5601    0.5105    0.0000 H   0  0  0  0  0  0  0  0  0  0  0  0
   -3.3823   -0.7199    0.0000 H   0  0  0  0  0  0  0  0  0  0  0  0
   -4.0967    0.5176    0.0000 H   0  0  0  0  0  0  0  0  0  0  0  0
   -2.6825    1.3670    0.0000 H   0  0  0  0  0  0  0  0  0  0  0  0
   -3.3965    1.7550    0.0000 H   0  0  0  0  0  0  0  0  0  0  0  0
   -4.1015    2.1676    0.0000 H   0  0  0  0  0  0  0  0  0  0  0  0
   -4.8124    1.7530    0.0000 H   0  0  0  0  0  0  0  0  0  0  0  0
   -5.5260    1.3421    0.0000 H   0  0  0  0  0  0  0  0  0  0  0  0
   -5.2237   -0.6094    0.0000 H   0  0  0  0  0  0  0  0  0  0  0  0
   -4.7287   -0.8377    0.0000 H   0  0  0  0  0  0  0  0  0  0  0  0
   -4.2400   -1.1199    0.0000 H   0  0  0  0  0  0  0  0  0  0  0  0
   -2.2691   -0.8782    0.0000 H   0  0  0  0  0  0  0  0  0  0  0  0
   -1.1283   -0.1160    0.0000 H   0  0  0  0  0  0  0  0  0  0  0  0
   -0.7439    0.8120    0.0000 H   0  0  0  0  0  0  0  0  0  0  0  0
   -1.5408    1.4235    0.0000 H   0  0  0  0  0  0  0  0  0  0  0  0
   -2.3377    0.8120    0.0000 H   0  0  0  0  0  0  0  0  0  0  0  0
   -3.8801   -2.7127    0.0000 H   0  0  0  0  0  0  0  0  0  0  0  0
   -3.2388   -3.0830    0.0000 H   0  0  0  0  0  0  0  0  0  0  0  0
   -4.3901   -1.7932    0.0000 H   0  0  0  0  0  0  0  0  0  0  0  0
   -3.9022   -2.3139    0.0000 H   0  0  0  0  0  0  0  0  0  0  0  0
   -2.8359   -1.2421    0.0000 H   0  0  0  0  0  0  0  0  0  0  0  0
  1  2  1  0  0  0  0
  2  3  1  0  0  0  0
  3  4  1  0  0  0  0
  4  5  1  0  0  0  0
  5  6  1  0  0  0  0
  6  7  1  0  0  0  0
  8  7  1  0  0  0  0
  9  8  1  0  0  0  0
 10  9  1  0  0  0  0
 10 11  1  0  0  0  0
 11 12  1  0  0  0  0
 13 12  1  0  0  0  0
  4 14  1  0  0  0  0
 14 15  1  0  0  0  0
 15 16  1  0  0  0  0
  4 17  1  0  0  0  0
 17 18  1  0  0  0  0
 18 19  1  0  0  0  0
  7 13  1  0  0  0  0
 12 10  1  0  0  0  0
  1 20  1  0  0  0  0
  1 21  1  0  0  0  0
  1 22  1  0  0  0  0
  2 23  1  0  0  0  0
  2 24  1  0  0  0  0
  5 25  1  0  0  0  0
  5 26  1  0  0  0  0
  6 27  1  0  0  0  0
  6 28  1  0  0  0  0
  7 29  1  0  0  0  0
  8 30  1  0  0  0  0
  8 31  1  0  0  0  0
  9 32  1  0  0  0  0
  9 33  1  0  0  0  0
 10 34  1  0  0  0  0
 12 35  1  0  0  0  0
 13 36  1  0  0  0  0
 13 37  1  0  0  0  0
 15 38  1  0  0  0  0
 15 39  1  0  0  0  0
 16 40  1  0  0  0  0
 16 41  1  0  0  0  0
 16 42  1  0  0  0  0
 18 43  1  0  0  0  0
 18 44  1  0  0  0  0
 19 45  1  0  0  0  0
 19 46  1  0  0  0  0
 19 47  1  0  0  0  0
M  END
>  <id_input>
5130

>  <InChIKey>
UDUKMRHNZZLJRB-UHFFFAOYSA-N

>  <substance_name>
triethoxy(2-{7-oxabicyclo[4.1.0]heptan-3-yl}ethyl)silane

>  <casrn>
10217-34-2

>  <Molecular weight>
288.4552307128906

>  <guideline>
other: EPA Guidelines for Registering Pesticides in the U.S.(Pesticide Assessment Guidelines, Subdivision F, Hazard Evaluation: Human and Domestic Animals, Section 81-5)

>  <species>
rabbit

>  <type_of_coverage>
semiocclusive

>  <max_duration(hrs)>
4.0

>  <vehicle>
unchanged (no vehicle)

>  <edema/ erythema score>
0.166666666666666

>  <reversibility>
0.0

>  <Outcome>
0

>  <StandardizerResult>
Remove Explicit Hydrogens (ID: RemoveExplicitH)
Clear Stereo (ID: ClearStereo)
Wedge Clean (ID: WedgeClean)
Mesomerize (ID: Mesomerize)
Tautomerize (ID: Tautomerize)
Add Explicit Hydrogens (ID: AddExplicitH)
Neutralize (ID: Neutralize)
Clean 2D (ID: Clean2D)


$$$$

  Mrv1812 02121911042D          

 43 42  0  0  0  0            999 V2000
    4.6874   -1.5563    0.0000 C   0  0  0  0  0  0  0  0  0  0  0  0
    3.9729   -1.1438    0.0000 C   0  0  0  0  0  0  0  0  0  0  0  0
    3.2584   -1.5563    0.0000 C   0  0  0  0  0  0  0  0  0  0  0  0
    2.8459   -0.8419    0.0000 C   0  0  0  0  0  0  0  0  0  0  0  0
    2.0209   -0.8419    0.0000 O   0  0  0  0  0  0  0  0  0  0  0  0
    3.6709   -2.2708    0.0000 C   0  0  0  0  0  0  0  0  0  0  0  0
    3.2584   -2.9853    0.0000 O   0  0  0  0  0  0  0  0  0  0  0  0
    2.5439   -1.9688    0.0000 C   0  0  0  0  0  0  0  0  0  0  0  0
    1.8295   -1.5563    0.0000 O   0  0  0  0  0  0  0  0  0  0  0  0
    1.1150   -1.9688    0.0000 C   0  0  0  0  0  0  0  0  0  0  0  0
    0.4005   -1.5563    0.0000 C   0  0  0  0  0  0  0  0  0  0  0  0
   -0.3139   -1.1438    0.0000 C   0  0  0  0  0  0  0  0  0  0  0  0
   -1.0284   -1.5563    0.0000 C   0  0  0  0  0  0  0  0  0  0  0  0
    0.8130   -0.8419    0.0000 C   0  0  0  0  0  0  0  0  0  0  0  0
    0.4005   -0.1274    0.0000 O   0  0  0  0  0  0  0  0  0  0  0  0
   -0.0120   -2.2708    0.0000 C   0  0  0  0  0  0  0  0  0  0  0  0
   -0.8370   -2.2708    0.0000 O   0  0  0  0  0  0  0  0  0  0  0  0
    4.2749   -2.2708    0.0000 H   0  0  0  0  0  0  0  0  0  0  0  0
    5.4018   -1.9688    0.0000 H   0  0  0  0  0  0  0  0  0  0  0  0
    5.0999   -0.8419    0.0000 H   0  0  0  0  0  0  0  0  0  0  0  0
    4.3431   -0.4066    0.0000 H   0  0  0  0  0  0  0  0  0  0  0  0
    3.6026   -0.4066    0.0000 H   0  0  0  0  0  0  0  0  0  0  0  0
    2.6330   -0.0448    0.0000 H   0  0  0  0  0  0  0  0  0  0  0  0
    2.4334   -1.5563    0.0000 H   0  0  0  0  0  0  0  0  0  0  0  0
    1.5187   -0.1873    0.0000 H   0  0  0  0  0  0  0  0  0  0  0  0
    4.0834   -1.5563    0.0000 H   0  0  0  0  0  0  0  0  0  0  0  0
    4.0834   -2.9853    0.0000 H   0  0  0  0  0  0  0  0  0  0  0  0
    2.5439   -3.3978    0.0000 H   0  0  0  0  0  0  0  0  0  0  0  0
    2.1737   -2.7061    0.0000 H   0  0  0  0  0  0  0  0  0  0  0  0
    2.9142   -2.7061    0.0000 H   0  0  0  0  0  0  0  0  0  0  0  0
    0.7447   -2.7061    0.0000 H   0  0  0  0  0  0  0  0  0  0  0  0
    1.4853   -2.7061    0.0000 H   0  0  0  0  0  0  0  0  0  0  0  0
    0.0563   -0.4066    0.0000 H   0  0  0  0  0  0  0  0  0  0  0  0
   -0.6842   -0.4066    0.0000 H   0  0  0  0  0  0  0  0  0  0  0  0
   -1.0824   -0.7331    0.0000 H   0  0  0  0  0  0  0  0  0  0  0  0
   -1.7906   -1.2406    0.0000 H   0  0  0  0  0  0  0  0  0  0  0  0
   -1.6487   -2.1003    0.0000 H   0  0  0  0  0  0  0  0  0  0  0  0
    1.1523   -1.5939    0.0000 H   0  0  0  0  0  0  0  0  0  0  0  0
    1.6217   -1.0054    0.0000 H   0  0  0  0  0  0  0  0  0  0  0  0
    0.5506    0.6839    0.0000 H   0  0  0  0  0  0  0  0  0  0  0  0
   -0.2249   -3.0679    0.0000 H   0  0  0  0  0  0  0  0  0  0  0  0
   -0.4245   -1.5563    0.0000 H   0  0  0  0  0  0  0  0  0  0  0  0
   -0.9222   -3.0914    0.0000 H   0  0  0  0  0  0  0  0  0  0  0  0
  1  2  1  0  0  0  0
  2  3  1  0  0  0  0
  3  4  1  0  0  0  0
  4  5  1  0  0  0  0
  3  6  1  0  0  0  0
  6  7  1  0  0  0  0
  3  8  1  0  0  0  0
  8  9  1  0  0  0  0
  9 10  1  0  0  0  0
 10 11  1  0  0  0  0
 11 12  1  0  0  0  0
 12 13  1  0  0  0  0
 11 14  1  0  0  0  0
 14 15  1  0  0  0  0
 11 16  1  0  0  0  0
 16 17  1  0  0  0  0
  1 18  1  0  0  0  0
  1 19  1  0  0  0  0
  1 20  1  0  0  0  0
  2 21  1  0  0  0  0
  2 22  1  0  0  0  0
  4 23  1  0  0  0  0
  4 24  1  0  0  0  0
  5 25  1  0  0  0  0
  6 26  1  0  0  0  0
  6 27  1  0  0  0  0
  7 28  1  0  0  0  0
  8 29  1  0  0  0  0
  8 30  1  0  0  0  0
 10 31  1  0  0  0  0
 10 32  1  0  0  0  0
 12 33  1  0  0  0  0
 12 34  1  0  0  0  0
 13 35  1  0  0  0  0
 13 36  1  0  0  0  0
 13 37  1  0  0  0  0
 14 38  1  0  0  0  0
 14 39  1  0  0  0  0
 15 40  1  0  0  0  0
 16 41  1  0  0  0  0
 16 42  1  0  0  0  0
 17 43  1  0  0  0  0
M  END
>  <id_input>
2450

>  <InChIKey>
WMYINDVYGQKYMI-UHFFFAOYSA-N

>  <substance_name>
2-ethyl-2-{[2-ethyl-3-hydroxy-2-(hydroxymethyl)propoxy]methyl}propane-1,3-diol

>  <casrn>
23235-61-2

>  <Molecular weight>
250.33184814453125

>  <guideline>
OECD Guideline 404 (Acute Dermal Irritation / Corrosion)

>  <species>
rabbit

>  <type_of_coverage>
semiocclusive

>  <max_duration(hrs)>
4.0

>  <vehicle>
water

>  <edema/ erythema score>
0.0

>  <max_score>
4.0

>  <reversibility>
0.0

>  <Outcome>
0

>  <StandardizerResult>
Remove Explicit Hydrogens (ID: RemoveExplicitH)
Clear Stereo (ID: ClearStereo)
Wedge Clean (ID: WedgeClean)
Mesomerize (ID: Mesomerize)
Tautomerize (ID: Tautomerize)
Add Explicit Hydrogens (ID: AddExplicitH)
Neutralize (ID: Neutralize)
Clean 2D (ID: Clean2D)


$$$$

  Mrv1812 02121911042D          

 28 28  0  0  0  0            999 V2000
    0.7641    1.9602    0.0000 C   0  0  0  0  0  0  0  0  0  0  0  0
    0.4819    1.1849    0.0000 C   0  0  0  0  0  0  0  0  0  0  0  0
    1.2944    1.0417    0.0000 C   0  0  0  0  0  0  0  0  0  0  0  0
   -0.2325    1.5974    0.0000 C   0  0  0  0  0  0  0  0  0  0  0  0
   -0.9470    1.1849    0.0000 C   0  0  0  0  0  0  0  0  0  0  0  0
   -1.6615    1.5974    0.0000 O   0  0  0  0  0  0  0  0  0  0  0  0
   -0.9470    0.3599    0.0000 C   0  0  0  0  0  0  0  0  0  0  0  0
   -0.2325   -0.0526    0.0000 C   0  0  0  0  0  0  0  0  0  0  0  0
   -0.7628   -0.6846    0.0000 C   0  0  0  0  0  0  0  0  0  0  0  0
    0.2978   -0.6846    0.0000 C   0  0  0  0  0  0  0  0  0  0  0  0
    0.4819    0.3599    0.0000 N   0  0  0  0  0  0  0  0  0  0  0  0
    1.1964   -0.0526    0.0000 O   0  0  0  0  0  1  0  0  0  0  0  0
    1.5393    1.6780    0.0000 H   0  0  0  0  0  0  0  0  0  0  0  0
    1.0463    2.7354    0.0000 H   0  0  0  0  0  0  0  0  0  0  0  0
   -0.0112    2.2423    0.0000 H   0  0  0  0  0  0  0  0  0  0  0  0
    0.8181    0.3681    0.0000 H   0  0  0  0  0  0  0  0  0  0  0  0
    1.7003    0.3234    0.0000 H   0  0  0  0  0  0  0  0  0  0  0  0
    2.1172    1.1022    0.0000 H   0  0  0  0  0  0  0  0  0  0  0  0
   -0.8694    2.1219    0.0000 H   0  0  0  0  0  0  0  0  0  0  0  0
   -0.2325    0.7724    0.0000 H   0  0  0  0  0  0  0  0  0  0  0  0
   -1.7706    0.3120    0.0000 H   0  0  0  0  0  0  0  0  0  0  0  0
   -1.4004   -0.3293    0.0000 H   0  0  0  0  0  0  0  0  0  0  0  0
   -1.4332   -1.1655    0.0000 H   0  0  0  0  0  0  0  0  0  0  0  0
   -0.6134   -1.4959    0.0000 H   0  0  0  0  0  0  0  0  0  0  0  0
    0.0348   -0.8950    0.0000 H   0  0  0  0  0  0  0  0  0  0  0  0
    0.5322   -1.4755    0.0000 H   0  0  0  0  0  0  0  0  0  0  0  0
    1.1187   -0.7659    0.0000 H   0  0  0  0  0  0  0  0  0  0  0  0
    0.6829    0.0450    0.0000 H   0  0  0  0  0  0  0  0  0  0  0  0
  1  2  1  0  0  0  0
  2  3  1  0  0  0  0
  4  2  1  0  0  0  0
  5  4  1  0  0  0  0
  5  6  2  0  0  0  0
  7  5  1  0  0  0  0
  8  7  1  0  0  0  0
  8  9  1  0  0  0  0
  8 10  1  0  0  0  0
 11  8  1  0  0  0  0
 11 12  1  0  0  0  0
  2 11  1  0  0  0  0
  1 13  1  0  0  0  0
  1 14  1  0  0  0  0
  1 15  1  0  0  0  0
  3 16  1  0  0  0  0
  3 17  1  0  0  0  0
  3 18  1  0  0  0  0
  4 19  1  0  0  0  0
  4 20  1  0  0  0  0
  7 21  1  0  0  0  0
  7 22  1  0  0  0  0
  9 23  1  0  0  0  0
  9 24  1  0  0  0  0
  9 25  1  0  0  0  0
 10 26  1  0  0  0  0
 10 27  1  0  0  0  0
 10 28  1  0  0  0  0
M  RAD  1  12   2
M  END
>  <id_input>
4733

>  <InChIKey>
WSGDRFHJFJRSFY-UHFFFAOYSA-N

>  <substance_name>
ol

>  <casrn>
2896-70-0

>  <Molecular weight>
170.2288360595703

>  <guideline>
EU Method B.6 (Skin Sensitisation)

>  <species>
guinea pig

>  <vehicle>
arachis oil

>  <edema/ erythema score>
1.0

>  <max_score>
1.0

>  <reversibility>
0.0

>  <Outcome>
0

>  <StandardizerResult>
Remove Explicit Hydrogens (ID: RemoveExplicitH)
Clear Stereo (ID: ClearStereo)
Wedge Clean (ID: WedgeClean)
Mesomerize (ID: Mesomerize)
Tautomerize (ID: Tautomerize)
Add Explicit Hydrogens (ID: AddExplicitH)
Neutralize (ID: Neutralize)
Clean 2D (ID: Clean2D)


$$$$

  Mrv1812 02121911042D          

 33 32  0  0  0  0            999 V2000
   -0.3502   -0.4603    0.0000 C   0  0  0  0  0  0  0  0  0  0  0  0
    0.3643   -0.0478    0.0000 C   0  0  0  0  0  0  0  0  0  0  0  0
    1.0787   -0.4603    0.0000 C   0  0  0  0  0  0  0  0  0  0  0  0
    1.7932   -0.0478    0.0000 C   0  0  0  0  0  0  0  0  0  0  0  0
    2.5077   -0.4603    0.0000 C   0  0  0  0  0  0  0  0  0  0  0  0
    2.5077   -1.2853    0.0000 C   0  0  0  0  0  0  0  0  0  0  0  0
    3.2221   -1.6978    0.0000 C   0  0  0  0  0  0  0  0  0  0  0  0
    3.2221   -0.0478    0.0000 C   0  0  0  0  0  0  0  0  0  0  0  0
    3.9366   -0.4603    0.0000 O   0  0  0  0  0  0  0  0  0  0  0  0
    4.6511   -0.0478    0.0000 C   0  0  0  0  0  0  0  0  0  0  0  0
    4.6511    0.7772    0.0000 O   0  0  0  0  0  0  0  0  0  0  0  0
    5.3656   -0.4603    0.0000 C   0  0  0  0  0  0  0  0  0  0  0  0
    6.0800   -0.0478    0.0000 C   0  0  0  0  0  0  0  0  0  0  0  0
    6.7945    0.3647    0.0000 N   0  0  0  0  0  0  0  0  0  0  0  0
   -0.7627    0.2542    0.0000 H   0  0  0  0  0  0  0  0  0  0  0  0
   -1.0647   -0.8728    0.0000 H   0  0  0  0  0  0  0  0  0  0  0  0
    0.0623   -1.1748    0.0000 H   0  0  0  0  0  0  0  0  0  0  0  0
    0.7345    0.6895    0.0000 H   0  0  0  0  0  0  0  0  0  0  0  0
   -0.0060    0.6895    0.0000 H   0  0  0  0  0  0  0  0  0  0  0  0
    0.7085   -1.1975    0.0000 H   0  0  0  0  0  0  0  0  0  0  0  0
    1.4490   -1.1975    0.0000 H   0  0  0  0  0  0  0  0  0  0  0  0
    2.1635    0.6895    0.0000 H   0  0  0  0  0  0  0  0  0  0  0  0
    1.4229    0.6895    0.0000 H   0  0  0  0  0  0  0  0  0  0  0  0
    1.7932   -0.8728    0.0000 H   0  0  0  0  0  0  0  0  0  0  0  0
    1.8757   -1.8156    0.0000 H   0  0  0  0  0  0  0  0  0  0  0  0
    2.3644   -2.0978    0.0000 H   0  0  0  0  0  0  0  0  0  0  0  0
    3.3831   -2.5069    0.0000 H   0  0  0  0  0  0  0  0  0  0  0  0
    4.0464   -1.7338    0.0000 H   0  0  0  0  0  0  0  0  0  0  0  0
    3.4530   -0.9057    0.0000 H   0  0  0  0  0  0  0  0  0  0  0  0
    3.5924    0.6895    0.0000 H   0  0  0  0  0  0  0  0  0  0  0  0
    2.8519    0.6895    0.0000 H   0  0  0  0  0  0  0  0  0  0  0  0
    4.9953   -1.1975    0.0000 H   0  0  0  0  0  0  0  0  0  0  0  0
    5.7358   -1.1975    0.0000 H   0  0  0  0  0  0  0  0  0  0  0  0
  1  2  1  0  0  0  0
  2  3  1  0  0  0  0
  3  4  1  0  0  0  0
  4  5  1  0  0  0  0
  5  6  1  0  0  0  0
  6  7  1  0  0  0  0
  5  8  1  0  0  0  0
  8  9  1  0  0  0  0
  9 10  1  0  0  0  0
 10 11  2  0  0  0  0
 10 12  1  0  0  0  0
 12 13  1  0  0  0  0
 13 14  3  0  0  0  0
  1 15  1  0  0  0  0
  1 16  1  0  0  0  0
  1 17  1  0  0  0  0
  2 18  1  0  0  0  0
  2 19  1  0  0  0  0
  3 20  1  0  0  0  0
  3 21  1  0  0  0  0
  4 22  1  0  0  0  0
  4 23  1  0  0  0  0
  5 24  1  0  0  0  0
  6 25  1  0  0  0  0
  6 26  1  0  0  0  0
  7 27  1  0  0  0  0
  7 28  1  0  0  0  0
  7 29  1  0  0  0  0
  8 30  1  0  0  0  0
  8 31  1  0  0  0  0
 12 32  1  0  0  0  0
 12 33  1  0  0  0  0
M  END
>  <id_input>
2474

>  <InChIKey>
ZNYBQVBNSXLZNI-UHFFFAOYSA-N

>  <substance_name>
2-ethylhexyl cyanoacetate

>  <casrn>
13361-34-7

>  <Molecular weight>
197.27406311035156

>  <guideline>
OECD Guideline 404 (Acute Dermal Irritation / Corrosion)

>  <species>
rabbit

>  <type_of_coverage>
semiocclusive

>  <max_duration(hrs)>
4.0

>  <vehicle>
unchanged (no vehicle)

>  <edema/ erythema score>
0.1

>  <max_score>
1.0

>  <reversibility>
0.0

>  <Outcome>
0

>  <StandardizerResult>
Remove Explicit Hydrogens (ID: RemoveExplicitH)
Clear Stereo (ID: ClearStereo)
Wedge Clean (ID: WedgeClean)
Mesomerize (ID: Mesomerize)
Tautomerize (ID: Tautomerize)
Add Explicit Hydrogens (ID: AddExplicitH)
Neutralize (ID: Neutralize)
Clean 2D (ID: Clean2D)


$$$$

  Mrv1812 02121911042D          

 19 18  0  0  0  0            999 V2000
   -0.3024   -0.6018    0.0000 C   0  0  0  0  0  0  0  0  0  0  0  0
    0.4121   -0.1893    0.0000 O   0  0  0  0  0  0  0  0  0  0  0  0
    1.1266   -0.6018    0.0000 C   0  0  0  0  0  0  0  0  0  0  0  0
    1.1266   -1.4268    0.0000 C   0  0  0  0  0  0  0  0  0  0  0  0
    1.8411   -0.1893    0.0000 C   0  0  0  0  0  0  0  0  0  0  0  0
    2.5555   -0.6018    0.0000 C   0  0  0  0  0  0  0  0  0  0  0  0
    3.2700   -0.1893    0.0000 O   0  0  0  0  0  0  0  0  0  0  0  0
   -0.7149    0.1127    0.0000 H   0  0  0  0  0  0  0  0  0  0  0  0
   -1.0168   -1.0143    0.0000 H   0  0  0  0  0  0  0  0  0  0  0  0
    0.1101   -1.3162    0.0000 H   0  0  0  0  0  0  0  0  0  0  0  0
    0.4121   -1.0143    0.0000 H   0  0  0  0  0  0  0  0  0  0  0  0
    0.5432   -2.0101    0.0000 H   0  0  0  0  0  0  0  0  0  0  0  0
    1.5391   -2.1412    0.0000 H   0  0  0  0  0  0  0  0  0  0  0  0
    1.9235   -1.2132    0.0000 H   0  0  0  0  0  0  0  0  0  0  0  0
    2.2113    0.5480    0.0000 H   0  0  0  0  0  0  0  0  0  0  0  0
    1.4708    0.5480    0.0000 H   0  0  0  0  0  0  0  0  0  0  0  0
    3.0523   -1.2604    0.0000 H   0  0  0  0  0  0  0  0  0  0  0  0
    2.5555    0.2232    0.0000 H   0  0  0  0  0  0  0  0  0  0  0  0
    4.0950   -0.1893    0.0000 H   0  0  0  0  0  0  0  0  0  0  0  0
  1  2  1  0  0  0  0
  2  3  1  0  0  0  0
  3  4  1  0  0  0  0
  3  5  1  0  0  0  0
  5  6  1  0  0  0  0
  6  7  1  0  0  0  0
  1  8  1  0  0  0  0
  1  9  1  0  0  0  0
  1 10  1  0  0  0  0
  3 11  1  0  0  0  0
  4 12  1  0  0  0  0
  4 13  1  0  0  0  0
  4 14  1  0  0  0  0
  5 15  1  0  0  0  0
  5 16  1  0  0  0  0
  6 17  1  0  0  0  0
  6 18  1  0  0  0  0
  7 19  1  0  0  0  0
M  END
>  <id_input>
2756, 2757

>  <InChIKey>
JSGVZVOGOQILFM-UHFFFAOYSA-N

>  <substance_name>
3-methoxybutan-1-ol

>  <casrn>
2517-43-3

>  <Molecular weight>
104.1475830078125

>  <guideline>
OECD Guideline 404 (Acute Dermal Irritation / Corrosion)

>  <species>
rabbit

>  <type_of_coverage>
semiocclusive

>  <max_duration(hrs)>
4.0

>  <vehicle>
unchanged (no vehicle)

>  <edema/ erythema score>
0.0

>  <max_score>
4.0

>  <reversibility>
0.0

>  <Outcome>
0

>  <StandardizerResult>
Remove Explicit Hydrogens (ID: RemoveExplicitH)
Clear Stereo (ID: ClearStereo)
Wedge Clean (ID: WedgeClean)
Mesomerize (ID: Mesomerize)
Tautomerize (ID: Tautomerize)
Add Explicit Hydrogens (ID: AddExplicitH)
Neutralize (ID: Neutralize)
Clean 2D (ID: Clean2D)


$$$$

  Mrv1812 02121911042D          

 13 13  0  0  0  0            999 V2000
    1.3592    1.0851    0.0000 F   0  0  0  0  0  0  0  0  0  0  0  0
    0.6448    0.6726    0.0000 C   0  0  0  0  0  0  0  0  0  0  0  0
   -0.0697    1.0851    0.0000 C   0  0  0  0  0  0  0  0  0  0  0  0
   -0.7842    0.6726    0.0000 C   0  0  0  0  0  0  0  0  0  0  0  0
   -0.7842   -0.1524    0.0000 C   0  0  0  0  0  0  0  0  0  0  0  0
   -0.0697   -0.5649    0.0000 C   0  0  0  0  0  0  0  0  0  0  0  0
   -0.0697   -1.3899    0.0000 F   0  0  0  0  0  0  0  0  0  0  0  0
    0.6448   -0.1524    0.0000 C   0  0  0  0  0  0  0  0  0  0  0  0
    1.3592   -0.5649    0.0000 C   0  0  0  0  0  0  0  0  0  0  0  0
    2.0737   -0.9774    0.0000 N   0  0  0  0  0  0  0  0  0  0  0  0
   -0.0697    1.9101    0.0000 H   0  0  0  0  0  0  0  0  0  0  0  0
   -1.4987    1.0851    0.0000 H   0  0  0  0  0  0  0  0  0  0  0  0
   -1.4987   -0.5649    0.0000 H   0  0  0  0  0  0  0  0  0  0  0  0
  1  2  1  0  0  0  0
  3  2  4  0  0  0  0
  4  3  4  0  0  0  0
  5  4  4  0  0  0  0
  6  5  4  0  0  0  0
  6  7  1  0  0  0  0
  8  6  4  0  0  0  0
  8  9  1  0  0  0  0
  9 10  3  0  0  0  0
  2  8  4  0  0  0  0
  3 11  1  0  0  0  0
  4 12  1  0  0  0  0
  5 13  1  0  0  0  0
M  END
>  <id_input>
2159

>  <InChIKey>
BNBRIFIJRKJGEI-UHFFFAOYSA-N

>  <substance_name>
2,6-difluorobenzonitrile

>  <casrn>
1897-52-5

>  <Molecular weight>
139.10223388671875

>  <guideline>
OECD Guideline 404 (Acute Dermal Irritation / Corrosion)

>  <species>
rabbit

>  <type_of_coverage>
occlusive

>  <max_duration(hrs)>
4.0

>  <vehicle>
unchanged (no vehicle)

>  <edema/ erythema score>
0.433333333333333

>  <max_score>
4.0

>  <reversibility>
0.0

>  <Outcome>
0

>  <StandardizerResult>
Remove Explicit Hydrogens (ID: RemoveExplicitH)
Dearomatize (ID: Dearomatize)
Clear Stereo (ID: ClearStereo)
Wedge Clean (ID: WedgeClean)
Mesomerize (ID: Mesomerize)
Tautomerize (ID: Tautomerize)
Aromatize (ID: Aromatize)
Add Explicit Hydrogens (ID: AddExplicitH)
Neutralize (ID: Neutralize)
Clean 2D (ID: Clean2D)


$$$$

  Mrv1812 02121911042D          

 16 15  0  0  0  0            999 V2000
    2.8864   -0.7910    0.0000 C   0  0  0  0  0  0  0  0  0  0  0  0
    2.4739   -0.0765    0.0000 O   0  0  0  0  0  0  0  0  0  0  0  0
    1.6489   -0.0765    0.0000 C   0  0  0  0  0  0  0  0  0  0  0  0
    1.2364    0.6380    0.0000 C   0  0  0  0  0  0  0  0  0  0  0  0
    0.4114    0.6380    0.0000 Cl  0  0  0  0  0  0  0  0  0  0  0  0
    1.2364   -0.7910    0.0000 O   0  0  0  0  0  0  0  0  0  0  0  0
    0.4114   -0.7910    0.0000 C   0  0  0  0  0  0  0  0  0  0  0  0
    2.1720   -1.2035    0.0000 H   0  0  0  0  0  0  0  0  0  0  0  0
    3.2989   -1.5054    0.0000 H   0  0  0  0  0  0  0  0  0  0  0  0
    3.6009   -0.3785    0.0000 H   0  0  0  0  0  0  0  0  0  0  0  0
    2.0614    0.6380    0.0000 H   0  0  0  0  0  0  0  0  0  0  0  0
    1.5186    1.4132    0.0000 H   0  0  0  0  0  0  0  0  0  0  0  0
    0.9543    1.4132    0.0000 H   0  0  0  0  0  0  0  0  0  0  0  0
    0.4114    0.0340    0.0000 H   0  0  0  0  0  0  0  0  0  0  0  0
   -0.4136   -0.7910    0.0000 H   0  0  0  0  0  0  0  0  0  0  0  0
    0.4114   -1.6160    0.0000 H   0  0  0  0  0  0  0  0  0  0  0  0
  1  2  1  0  0  0  0
  2  3  1  0  0  0  0
  3  4  1  0  0  0  0
  4  5  1  0  0  0  0
  3  6  1  0  0  0  0
  6  7  1  0  0  0  0
  1  8  1  0  0  0  0
  1  9  1  0  0  0  0
  1 10  1  0  0  0  0
  3 11  1  0  0  0  0
  4 12  1  0  0  0  0
  4 13  1  0  0  0  0
  7 14  1  0  0  0  0
  7 15  1  0  0  0  0
  7 16  1  0  0  0  0
M  END
>  <id_input>
2421

>  <InChIKey>
CRZJPEIBPQWDGJ-UHFFFAOYSA-N

>  <substance_name>
2-chloro-1,1-dimethoxyethane

>  <casrn>
97-97-2

>  <Molecular weight>
124.5660629272461

>  <guideline>
OECD Guideline 404 (Acute Dermal Irritation / Corrosion)

>  <species>
rabbit

>  <type_of_coverage>
semiocclusive

>  <max_duration(hrs)>
4.0

>  <vehicle>
water

>  <edema/ erythema score>
0.666666666666666

>  <reversibility>
0.0

>  <Outcome>
0

>  <StandardizerResult>
Remove Explicit Hydrogens (ID: RemoveExplicitH)
Clear Stereo (ID: ClearStereo)
Wedge Clean (ID: WedgeClean)
Mesomerize (ID: Mesomerize)
Tautomerize (ID: Tautomerize)
Add Explicit Hydrogens (ID: AddExplicitH)
Neutralize (ID: Neutralize)
Clean 2D (ID: Clean2D)


$$$$

  Mrv1812 02121911042D          

 15 15  0  0  0  0            999 V2000
    1.4805    0.8928    0.0000 N   0  0  0  0  0  0  0  0  0  0  0  0
    0.7660    0.4803    0.0000 C   0  0  0  0  0  0  0  0  0  0  0  0
    0.0516    0.8928    0.0000 C   0  0  0  0  0  0  0  0  0  0  0  0
   -0.6629    0.4803    0.0000 C   0  0  0  0  0  0  0  0  0  0  0  0
   -0.6629   -0.3447    0.0000 C   0  0  0  0  0  0  0  0  0  0  0  0
   -1.3774   -0.7572    0.0000 Cl  0  0  0  0  0  0  0  0  0  0  0  0
    0.0516   -0.7572    0.0000 C   0  0  0  0  0  0  0  0  0  0  0  0
    0.7660   -0.3447    0.0000 C   0  0  0  0  0  0  0  0  0  0  0  0
    1.4805   -0.7572    0.0000 O   0  0  0  0  0  0  0  0  0  0  0  0
    2.1950    0.4803    0.0000 H   0  0  0  0  0  0  0  0  0  0  0  0
    1.4805    1.7178    0.0000 H   0  0  0  0  0  0  0  0  0  0  0  0
    0.0516    1.7178    0.0000 H   0  0  0  0  0  0  0  0  0  0  0  0
   -1.3774    0.8928    0.0000 H   0  0  0  0  0  0  0  0  0  0  0  0
    0.0516   -1.5822    0.0000 H   0  0  0  0  0  0  0  0  0  0  0  0
    1.4805   -1.5822    0.0000 H   0  0  0  0  0  0  0  0  0  0  0  0
  1  2  1  0  0  0  0
  3  2  4  0  0  0  0
  4  3  4  0  0  0  0
  5  4  4  0  0  0  0
  5  6  1  0  0  0  0
  7  5  4  0  0  0  0
  8  7  4  0  0  0  0
  8  9  1  0  0  0  0
  2  8  4  0  0  0  0
  1 10  1  0  0  0  0
  1 11  1  0  0  0  0
  3 12  1  0  0  0  0
  4 13  1  0  0  0  0
  7 14  1  0  0  0  0
  9 15  1  0  0  0  0
M  END
>  <id_input>
2395

>  <InChIKey>
FZCQMIRJCGWWCL-UHFFFAOYSA-N

>  <substance_name>
2-amino-5-chlorophenol

>  <casrn>
28443-50-7

>  <Molecular weight>
143.57093811035156

>  <guideline>
OECD Guideline 404 (Acute Dermal Irritation / Corrosion)

>  <species>
rabbit

>  <type_of_coverage>
semiocclusive

>  <max_duration(hrs)>
4.0

>  <vehicle>
other: polyethylene glycol 400

>  <edema/ erythema score>
0.4

>  <reversibility>
0.0

>  <Outcome>
0

>  <StandardizerResult>
Remove Explicit Hydrogens (ID: RemoveExplicitH)
Dearomatize (ID: Dearomatize)
Clear Stereo (ID: ClearStereo)
Wedge Clean (ID: WedgeClean)
Mesomerize (ID: Mesomerize)
Tautomerize (ID: Tautomerize)
Aromatize (ID: Aromatize)
Add Explicit Hydrogens (ID: AddExplicitH)
Neutralize (ID: Neutralize)
Clean 2D (ID: Clean2D)


$$$$

  Mrv1812 02121911042D          

 31 30  0  0  0  0            999 V2000
    6.0199    1.3147    0.0000 C   0  0  0  0  0  0  0  0  0  0  0  0
    5.3054    0.9022    0.0000 C   0  0  0  0  0  0  0  0  0  0  0  0
    4.5910    1.3147    0.0000 O   0  0  0  0  0  0  0  0  0  0  0  0
    3.8765    0.9022    0.0000 C   0  0  0  0  0  0  0  0  0  0  0  0
    3.8765    0.0772    0.0000 O   0  0  0  0  0  0  0  0  0  0  0  0
    3.1620    1.3147    0.0000 C   0  0  0  0  0  0  0  0  0  0  0  0
    2.4475    0.9022    0.0000 P   0  0  0  0  0  0  0  0  0  0  0  0
    2.0350    1.6167    0.0000 O   0  0  0  0  0  0  0  0  0  0  0  0
    1.7331    0.4897    0.0000 O   0  0  0  0  0  0  0  0  0  0  0  0
    1.0186    0.9022    0.0000 C   0  0  0  0  0  0  0  0  0  0  0  0
    0.3041    0.4897    0.0000 C   0  0  0  0  0  0  0  0  0  0  0  0
    2.8600    0.1878    0.0000 O   0  0  0  0  0  0  0  0  0  0  0  0
    2.4475   -0.5267    0.0000 C   0  0  0  0  0  0  0  0  0  0  0  0
    1.6225   -0.5267    0.0000 C   0  0  0  0  0  0  0  0  0  0  0  0
    6.4324    0.6003    0.0000 H   0  0  0  0  0  0  0  0  0  0  0  0
    6.7344    1.7272    0.0000 H   0  0  0  0  0  0  0  0  0  0  0  0
    5.6074    2.0292    0.0000 H   0  0  0  0  0  0  0  0  0  0  0  0
    4.9352    0.1650    0.0000 H   0  0  0  0  0  0  0  0  0  0  0  0
    5.6757    0.1650    0.0000 H   0  0  0  0  0  0  0  0  0  0  0  0
    3.5323    2.0520    0.0000 H   0  0  0  0  0  0  0  0  0  0  0  0
    2.7918    2.0520    0.0000 H   0  0  0  0  0  0  0  0  0  0  0  0
    1.3889    1.6395    0.0000 H   0  0  0  0  0  0  0  0  0  0  0  0
    0.6483    1.6395    0.0000 H   0  0  0  0  0  0  0  0  0  0  0  0
   -0.1084    1.2042    0.0000 H   0  0  0  0  0  0  0  0  0  0  0  0
   -0.4103    0.0772    0.0000 H   0  0  0  0  0  0  0  0  0  0  0  0
    0.7166   -0.2247    0.0000 H   0  0  0  0  0  0  0  0  0  0  0  0
    2.4955   -1.3503    0.0000 H   0  0  0  0  0  0  0  0  0  0  0  0
    3.1368   -0.9801    0.0000 H   0  0  0  0  0  0  0  0  0  0  0  0
    1.1944   -1.2319    0.0000 H   0  0  0  0  0  0  0  0  0  0  0  0
    1.8058   -1.3311    0.0000 H   0  0  0  0  0  0  0  0  0  0  0  0
    1.7547    0.2876    0.0000 H   0  0  0  0  0  0  0  0  0  0  0  0
  1  2  1  0  0  0  0
  2  3  1  0  0  0  0
  3  4  1  0  0  0  0
  4  5  2  0  0  0  0
  4  6  1  0  0  0  0
  6  7  1  0  0  0  0
  7  8  2  0  0  0  0
  7  9  1  0  0  0  0
  9 10  1  0  0  0  0
 10 11  1  0  0  0  0
  7 12  1  0  0  0  0
 12 13  1  0  0  0  0
 13 14  1  0  0  0  0
  1 15  1  0  0  0  0
  1 16  1  0  0  0  0
  1 17  1  0  0  0  0
  2 18  1  0  0  0  0
  2 19  1  0  0  0  0
  6 20  1  0  0  0  0
  6 21  1  0  0  0  0
 10 22  1  0  0  0  0
 10 23  1  0  0  0  0
 11 24  1  0  0  0  0
 11 25  1  0  0  0  0
 11 26  1  0  0  0  0
 13 27  1  0  0  0  0
 13 28  1  0  0  0  0
 14 29  1  0  0  0  0
 14 30  1  0  0  0  0
 14 31  1  0  0  0  0
M  END
>  <id_input>
4335

>  <InChIKey>
GGUBFICZYGKNTD-UHFFFAOYSA-N

>  <substance_name>
ethyl 2-(diethoxyphosphoryl)acetate

>  <casrn>
867-13-0

>  <Molecular weight>
224.19134521484375

>  <guideline>
other: 16 CFR 1500.41

>  <species>
rabbit

>  <type_of_coverage>
occlusive

>  <max_duration(hrs)>
24.0

>  <vehicle>
unchanged (no vehicle)

>  <edema/ erythema score>
0.5

>  <max_score>
4.0

>  <reversibility>
0.0

>  <Outcome>
0

>  <StandardizerResult>
Remove Explicit Hydrogens (ID: RemoveExplicitH)
Clear Stereo (ID: ClearStereo)
Wedge Clean (ID: WedgeClean)
Mesomerize (ID: Mesomerize)
Tautomerize (ID: Tautomerize)
Add Explicit Hydrogens (ID: AddExplicitH)
Neutralize (ID: Neutralize)
Clean 2D (ID: Clean2D)


$$$$

  Mrv1812 02121911042D          

 30 29  0  0  0  0            999 V2000
    0.3316   -1.1086    0.0000 C   0  0  0  0  0  0  0  0  0  0  0  0
    0.7441   -0.3942    0.0000 C   0  0  0  0  0  0  0  0  0  0  0  0
    1.5691   -0.3942    0.0000 C   0  0  0  0  0  0  0  0  0  0  0  0
    1.9816    0.3203    0.0000 C   0  0  0  0  0  0  0  0  0  0  0  0
    2.8066    0.3203    0.0000 N   0  0  0  0  0  0  0  0  0  0  0  0
    3.2191    1.0348    0.0000 C   0  0  0  0  0  0  0  0  0  0  0  0
    4.0441    1.0348    0.0000 C   0  0  0  0  0  0  0  0  0  0  0  0
    4.4566    1.7492    0.0000 O   0  0  0  0  0  0  0  0  0  0  0  0
    3.2191   -0.3942    0.0000 C   0  0  0  0  0  0  0  0  0  0  0  0
    4.0441   -0.3942    0.0000 C   0  0  0  0  0  0  0  0  0  0  0  0
    4.4566   -1.1086    0.0000 O   0  0  0  0  0  0  0  0  0  0  0  0
   -0.3829   -0.6961    0.0000 H   0  0  0  0  0  0  0  0  0  0  0  0
   -0.0809   -1.8231    0.0000 H   0  0  0  0  0  0  0  0  0  0  0  0
    1.0460   -1.5211    0.0000 H   0  0  0  0  0  0  0  0  0  0  0  0
    0.6961    0.4294    0.0000 H   0  0  0  0  0  0  0  0  0  0  0  0
    0.0548    0.0592    0.0000 H   0  0  0  0  0  0  0  0  0  0  0  0
    1.6170   -1.2178    0.0000 H   0  0  0  0  0  0  0  0  0  0  0  0
    2.2583   -0.8475    0.0000 H   0  0  0  0  0  0  0  0  0  0  0  0
    1.9336    1.1439    0.0000 H   0  0  0  0  0  0  0  0  0  0  0  0
    1.2923    0.7736    0.0000 H   0  0  0  0  0  0  0  0  0  0  0  0
    3.1711    1.8584    0.0000 H   0  0  0  0  0  0  0  0  0  0  0  0
    2.5298    1.4881    0.0000 H   0  0  0  0  0  0  0  0  0  0  0  0
    4.0920    0.2112    0.0000 H   0  0  0  0  0  0  0  0  0  0  0  0
    4.7333    0.5814    0.0000 H   0  0  0  0  0  0  0  0  0  0  0  0
    5.2816    1.7492    0.0000 H   0  0  0  0  0  0  0  0  0  0  0  0
    2.5298   -0.8475    0.0000 H   0  0  0  0  0  0  0  0  0  0  0  0
    3.1711   -1.2178    0.0000 H   0  0  0  0  0  0  0  0  0  0  0  0
    4.8488   -0.2123    0.0000 H   0  0  0  0  0  0  0  0  0  0  0  0
    3.6316   -1.1086    0.0000 H   0  0  0  0  0  0  0  0  0  0  0  0
    5.1710   -1.5211    0.0000 H   0  0  0  0  0  0  0  0  0  0  0  0
  1  2  1  0  0  0  0
  2  3  1  0  0  0  0
  3  4  1  0  0  0  0
  4  5  1  0  0  0  0
  5  6  1  0  0  0  0
  6  7  1  0  0  0  0
  7  8  1  0  0  0  0
  5  9  1  0  0  0  0
  9 10  1  0  0  0  0
 10 11  1  0  0  0  0
  1 12  1  0  0  0  0
  1 13  1  0  0  0  0
  1 14  1  0  0  0  0
  2 15  1  0  0  0  0
  2 16  1  0  0  0  0
  3 17  1  0  0  0  0
  3 18  1  0  0  0  0
  4 19  1  0  0  0  0
  4 20  1  0  0  0  0
  6 21  1  0  0  0  0
  6 22  1  0  0  0  0
  7 23  1  0  0  0  0
  7 24  1  0  0  0  0
  8 25  1  0  0  0  0
  9 26  1  0  0  0  0
  9 27  1  0  0  0  0
 10 28  1  0  0  0  0
 10 29  1  0  0  0  0
 11 30  1  0  0  0  0
M  END
>  <id_input>
2388

>  <InChIKey>
GVNHOISKXMSMPX-UHFFFAOYSA-N

>  <substance_name>
2-[butyl(2-hydroxyethyl)amino]ethan-1-ol

>  <casrn>
102-79-4

>  <Molecular weight>
161.24195861816406

>  <guideline>
OECD Guideline 404 (Acute Dermal Irritation / Corrosion)

>  <species>
rabbit

>  <type_of_coverage>
semiocclusive

>  <max_duration(hrs)>
4.0

>  <vehicle>
unchanged (no vehicle)

>  <edema/ erythema score>
0.22

>  <max_score>
1.0

>  <reversibility>
0.0

>  <Outcome>
0

>  <StandardizerResult>
Remove Explicit Hydrogens (ID: RemoveExplicitH)
Clear Stereo (ID: ClearStereo)
Wedge Clean (ID: WedgeClean)
Mesomerize (ID: Mesomerize)
Tautomerize (ID: Tautomerize)
Add Explicit Hydrogens (ID: AddExplicitH)
Neutralize (ID: Neutralize)
Clean 2D (ID: Clean2D)


$$$$

  Mrv1812 02121911042D          

 19 18  0  0  0  0            999 V2000
    3.3213   -1.8677    0.0000 C   0  0  0  0  0  0  0  0  0  0  0  0
    2.9088   -1.1532    0.0000 C   0  0  0  0  0  0  0  0  0  0  0  0
    2.0838   -1.1532    0.0000 S   0  0  0  0  0  0  0  0  0  0  0  0
    2.0838   -0.3282    0.0000 O   0  0  0  0  0  0  0  0  0  0  0  0
    2.0838   -1.9782    0.0000 O   0  0  0  0  0  0  0  0  0  0  0  0
    1.2588   -1.1532    0.0000 C   0  0  0  0  0  0  0  0  0  0  0  0
    0.8463   -0.4388    0.0000 S   0  0  0  0  0  0  0  0  0  0  0  0
    1.5607   -0.0263    0.0000 O   0  0  0  0  0  0  0  0  0  0  0  0
    0.1318   -0.8513    0.0000 O   0  0  0  0  0  0  0  0  0  0  0  0
    0.4338    0.2757    0.0000 C   0  0  0  0  0  0  0  0  0  0  0  0
   -0.3912    0.2757    0.0000 C   0  0  0  0  0  0  0  0  0  0  0  0
    2.9088   -2.5822    0.0000 H   0  0  0  0  0  0  0  0  0  0  0  0
    4.1463   -1.8677    0.0000 H   0  0  0  0  0  0  0  0  0  0  0  0
    3.3213   -0.4388    0.0000 H   0  0  0  0  0  0  0  0  0  0  0  0
    0.5695   -1.6066    0.0000 H   0  0  0  0  0  0  0  0  0  0  0  0
    1.2108   -1.9768    0.0000 H   0  0  0  0  0  0  0  0  0  0  0  0
    0.8463    0.9902    0.0000 H   0  0  0  0  0  0  0  0  0  0  0  0
   -0.8037    0.9902    0.0000 H   0  0  0  0  0  0  0  0  0  0  0  0
   -0.8037   -0.4388    0.0000 H   0  0  0  0  0  0  0  0  0  0  0  0
  1  2  2  0  0  0  0
  2  3  1  0  0  0  0
  3  4  2  0  0  0  0
  3  5  2  0  0  0  0
  3  6  1  0  0  0  0
  6  7  1  0  0  0  0
  7  8  2  0  0  0  0
  7  9  2  0  0  0  0
  7 10  1  0  0  0  0
 10 11  2  0  0  0  0
  1 12  1  0  0  0  0
  1 13  1  0  0  0  0
  2 14  1  0  0  0  0
  6 15  1  0  0  0  0
  6 16  1  0  0  0  0
 10 17  1  0  0  0  0
 11 18  1  0  0  0  0
 11 19  1  0  0  0  0
M  END
>  <id_input>
153

>  <InChIKey>
IJHIIHORMWQZRQ-UHFFFAOYSA-N

>  <substance_name>
(ethenesulfonyl)methanesulfonylethene

>  <casrn>
3278-22-6

>  <Molecular weight>
196.24461364746094

>  <guideline>
OECD Guideline 404 (Acute Dermal Irritation / Corrosion)

>  <species>
rabbit

>  <type_of_coverage>
semiocclusive

>  <edema/ erythema score>
1.0

>  <reversibility>
0.0

>  <Outcome>
0

>  <StandardizerResult>
Remove Explicit Hydrogens (ID: RemoveExplicitH)
Clear Stereo (ID: ClearStereo)
Wedge Clean (ID: WedgeClean)
Mesomerize (ID: Mesomerize)
Tautomerize (ID: Tautomerize)
Add Explicit Hydrogens (ID: AddExplicitH)
Neutralize (ID: Neutralize)
Clean 2D (ID: Clean2D)


$$$$

  Mrv1812 02121911042D          

 38 38  0  0  0  0            999 V2000
   -2.4622    0.2545    0.0000 C   0  0  0  0  0  0  0  0  0  0  0  0
   -1.7477    0.6670    0.0000 C   0  0  0  0  0  0  0  0  0  0  0  0
   -1.0332    0.2545    0.0000 C   0  0  0  0  0  0  0  0  0  0  0  0
   -0.3188    0.6670    0.0000 C   0  0  0  0  0  0  0  0  0  0  0  0
    0.3957    0.2545    0.0000 C   0  0  0  0  0  0  0  0  0  0  0  0
    1.1102    0.6670    0.0000 C   0  0  0  0  0  0  0  0  0  0  0  0
    1.8639    0.3314    0.0000 C   0  0  0  0  0  0  0  0  0  0  0  0
    2.4159    0.9445    0.0000 C   0  0  0  0  0  0  0  0  0  0  0  0
    2.0034    1.6590    0.0000 C   0  0  0  0  0  0  0  0  0  0  0  0
    1.1964    1.4874    0.0000 C   0  0  0  0  0  0  0  0  0  0  0  0
    0.5833    2.0395    0.0000 O   0  0  0  0  0  0  0  0  0  0  0  0
    2.0354   -0.4756    0.0000 C   0  0  0  0  0  0  0  0  0  0  0  0
    2.8200   -0.7305    0.0000 C   0  0  0  0  0  0  0  0  0  0  0  0
    3.4331   -0.1785    0.0000 O   0  0  0  0  0  0  0  0  0  0  0  0
    2.9915   -1.5375    0.0000 O   0  0  0  0  0  0  0  0  0  0  0  0
    3.7762   -1.7924    0.0000 C   0  0  0  0  0  0  0  0  0  0  0  0
   -2.8747    0.9689    0.0000 H   0  0  0  0  0  0  0  0  0  0  0  0
   -3.1766   -0.1580    0.0000 H   0  0  0  0  0  0  0  0  0  0  0  0
   -2.0497   -0.4600    0.0000 H   0  0  0  0  0  0  0  0  0  0  0  0
   -1.3774    1.4042    0.0000 H   0  0  0  0  0  0  0  0  0  0  0  0
   -2.1180    1.4042    0.0000 H   0  0  0  0  0  0  0  0  0  0  0  0
   -1.4035   -0.4828    0.0000 H   0  0  0  0  0  0  0  0  0  0  0  0
   -0.6630   -0.4828    0.0000 H   0  0  0  0  0  0  0  0  0  0  0  0
    0.0515    1.4042    0.0000 H   0  0  0  0  0  0  0  0  0  0  0  0
   -0.6890    1.4042    0.0000 H   0  0  0  0  0  0  0  0  0  0  0  0
    0.0255   -0.4828    0.0000 H   0  0  0  0  0  0  0  0  0  0  0  0
    0.7660   -0.4828    0.0000 H   0  0  0  0  0  0  0  0  0  0  0  0
    1.1534   -0.1569    0.0000 H   0  0  0  0  0  0  0  0  0  0  0  0
    2.6607    0.1179    0.0000 H   0  0  0  0  0  0  0  0  0  0  0  0
    3.2405    0.9697    0.0000 H   0  0  0  0  0  0  0  0  0  0  0  0
    3.0018    1.5253    0.0000 H   0  0  0  0  0  0  0  0  0  0  0  0
    2.6535    2.1669    0.0000 H   0  0  0  0  0  0  0  0  0  0  0  0
    1.9458    2.4820    0.0000 H   0  0  0  0  0  0  0  0  0  0  0  0
    1.5146   -1.1155    0.0000 H   0  0  0  0  0  0  0  0  0  0  0  0
    2.0537   -1.3004    0.0000 H   0  0  0  0  0  0  0  0  0  0  0  0
    3.5212   -2.5770    0.0000 H   0  0  0  0  0  0  0  0  0  0  0  0
    4.5608   -2.0474    0.0000 H   0  0  0  0  0  0  0  0  0  0  0  0
    4.0311   -1.0078    0.0000 H   0  0  0  0  0  0  0  0  0  0  0  0
  1  2  1  0  0  0  0
  2  3  1  0  0  0  0
  3  4  1  0  0  0  0
  4  5  1  0  0  0  0
  5  6  1  0  0  0  0
  7  6  1  0  0  0  0
  8  7  1  0  0  0  0
  9  8  1  0  0  0  0
 10  9  1  0  0  0  0
 10 11  2  0  0  0  0
  7 12  1  0  0  0  0
 12 13  1  0  0  0  0
 13 14  2  0  0  0  0
 13 15  1  0  0  0  0
 15 16  1  0  0  0  0
  6 10  1  0  0  0  0
  1 17  1  0  0  0  0
  1 18  1  0  0  0  0
  1 19  1  0  0  0  0
  2 20  1  0  0  0  0
  2 21  1  0  0  0  0
  3 22  1  0  0  0  0
  3 23  1  0  0  0  0
  4 24  1  0  0  0  0
  4 25  1  0  0  0  0
  5 26  1  0  0  0  0
  5 27  1  0  0  0  0
  6 28  1  0  0  0  0
  7 29  1  0  0  0  0
  8 30  1  0  0  0  0
  8 31  1  0  0  0  0
  9 32  1  0  0  0  0
  9 33  1  0  0  0  0
 12 34  1  0  0  0  0
 12 35  1  0  0  0  0
 16 36  1  0  0  0  0
 16 37  1  0  0  0  0
 16 38  1  0  0  0  0
M  END
>  <id_input>
4536

>  <InChIKey>
KVWWIYGFBYDJQC-UHFFFAOYSA-N

>  <substance_name>
methyl 2-(3-oxo-2-pentylcyclopentyl)acetate

>  <casrn>
24851-98-7

>  <Molecular weight>
226.31198120117188

>  <guideline>
OECD Guideline 404 (Acute Dermal Irritation / Corrosion)

>  <species>
rabbit

>  <type_of_coverage>
occlusive

>  <max_duration(hrs)>
4.0

>  <vehicle>
unchanged (no vehicle)

>  <edema/ erythema score>
0.0

>  <max_score>
4.0

>  <reversibility>
0.0

>  <Outcome>
0

>  <StandardizerResult>
Remove Explicit Hydrogens (ID: RemoveExplicitH)
Clear Stereo (ID: ClearStereo)
Wedge Clean (ID: WedgeClean)
Mesomerize (ID: Mesomerize)
Tautomerize (ID: Tautomerize)
Add Explicit Hydrogens (ID: AddExplicitH)
Neutralize (ID: Neutralize)
Clean 2D (ID: Clean2D)


$$$$

  Mrv1812 02121911042D          

 13 13  0  0  0  0            999 V2000
    1.3592    1.0851    0.0000 Cl  0  0  0  0  0  0  0  0  0  0  0  0
    0.6448    0.6726    0.0000 C   0  0  0  0  0  0  0  0  0  0  0  0
   -0.0697    1.0851    0.0000 C   0  0  0  0  0  0  0  0  0  0  0  0
   -0.7842    0.6726    0.0000 C   0  0  0  0  0  0  0  0  0  0  0  0
   -0.7842   -0.1524    0.0000 C   0  0  0  0  0  0  0  0  0  0  0  0
   -0.0697   -0.5649    0.0000 C   0  0  0  0  0  0  0  0  0  0  0  0
    0.6448   -0.1524    0.0000 C   0  0  0  0  0  0  0  0  0  0  0  0
    1.3592   -0.5649    0.0000 C   0  0  0  0  0  0  0  0  0  0  0  0
    2.0737   -0.9774    0.0000 N   0  0  0  0  0  0  0  0  0  0  0  0
   -0.0697    1.9101    0.0000 H   0  0  0  0  0  0  0  0  0  0  0  0
   -1.4987    1.0851    0.0000 H   0  0  0  0  0  0  0  0  0  0  0  0
   -1.4987   -0.5649    0.0000 H   0  0  0  0  0  0  0  0  0  0  0  0
   -0.0697   -1.3899    0.0000 H   0  0  0  0  0  0  0  0  0  0  0  0
  1  2  1  0  0  0  0
  3  2  4  0  0  0  0
  4  3  4  0  0  0  0
  5  4  4  0  0  0  0
  6  5  4  0  0  0  0
  7  6  4  0  0  0  0
  7  8  1  0  0  0  0
  8  9  3  0  0  0  0
  2  7  4  0  0  0  0
  3 10  1  0  0  0  0
  4 11  1  0  0  0  0
  5 12  1  0  0  0  0
  6 13  1  0  0  0  0
M  END
>  <id_input>
2435

>  <InChIKey>
NHWQMJMIYICNBP-UHFFFAOYSA-N

>  <substance_name>
2-chlorobenzonitrile

>  <casrn>
873-32-5

>  <Molecular weight>
137.5663604736328

>  <guideline>
OECD Guideline 404 (Acute Dermal Irritation / Corrosion)

>  <species>
rabbit

>  <type_of_coverage>
semiocclusive

>  <max_duration(hrs)>
4.0

>  <vehicle>
other: propylene glycole

>  <edema/ erythema score>
0.0

>  <max_score>
0.0

>  <reversibility>
0.0

>  <Outcome>
0

>  <StandardizerResult>
Remove Explicit Hydrogens (ID: RemoveExplicitH)
Dearomatize (ID: Dearomatize)
Clear Stereo (ID: ClearStereo)
Wedge Clean (ID: WedgeClean)
Mesomerize (ID: Mesomerize)
Tautomerize (ID: Tautomerize)
Aromatize (ID: Aromatize)
Add Explicit Hydrogens (ID: AddExplicitH)
Neutralize (ID: Neutralize)
Clean 2D (ID: Clean2D)


$$$$

  Mrv1812 02121911042D          

 32 31  0  0  0  0            999 V2000
   -0.0481    1.1184    0.0000 C   0  0  0  0  0  0  0  0  0  0  0  0
    0.7621    1.2743    0.0000 C   0  0  0  0  0  0  0  0  0  0  0  0
    1.3022    0.6507    0.0000 C   0  0  0  0  0  0  0  0  0  0  0  0
    2.1123    0.8066    0.0000 C   0  0  0  0  0  0  0  0  0  0  0  0
    2.6524    0.1829    0.0000 C   0  0  0  0  0  0  0  0  0  0  0  0
    3.4625    0.3389    0.0000 C   0  0  0  0  0  0  0  0  0  0  0  0
    4.0026   -0.2848    0.0000 O   0  0  0  0  0  0  0  0  0  0  0  0
    4.8127   -0.1289    0.0000 C   0  0  0  0  0  0  0  0  0  0  0  0
    5.3528   -0.7525    0.0000 C   0  0  0  0  0  0  0  0  0  0  0  0
    6.1630   -0.5966    0.0000 O   0  0  0  0  0  0  0  0  0  0  0  0
    5.0828    0.6507    0.0000 C   0  0  0  0  0  0  0  0  0  0  0  0
    5.8929    0.8066    0.0000 O   0  0  0  0  0  0  0  0  0  0  0  0
   -0.2040    1.9285    0.0000 H   0  0  0  0  0  0  0  0  0  0  0  0
   -0.8582    0.9625    0.0000 H   0  0  0  0  0  0  0  0  0  0  0  0
    0.1078    0.3083    0.0000 H   0  0  0  0  0  0  0  0  0  0  0  0
    1.3533    1.8498    0.0000 H   0  0  0  0  0  0  0  0  0  0  0  0
    0.6535    2.0921    0.0000 H   0  0  0  0  0  0  0  0  0  0  0  0
    0.7110    0.0752    0.0000 H   0  0  0  0  0  0  0  0  0  0  0  0
    1.4107   -0.1672    0.0000 H   0  0  0  0  0  0  0  0  0  0  0  0
    2.7035    1.3820    0.0000 H   0  0  0  0  0  0  0  0  0  0  0  0
    2.0038    1.6244    0.0000 H   0  0  0  0  0  0  0  0  0  0  0  0
    2.0612   -0.3925    0.0000 H   0  0  0  0  0  0  0  0  0  0  0  0
    2.7609   -0.6349    0.0000 H   0  0  0  0  0  0  0  0  0  0  0  0
    4.0537    0.9143    0.0000 H   0  0  0  0  0  0  0  0  0  0  0  0
    3.3540    1.1567    0.0000 H   0  0  0  0  0  0  0  0  0  0  0  0
    4.5427   -0.9084    0.0000 H   0  0  0  0  0  0  0  0  0  0  0  0
    5.2223   -1.5671    0.0000 H   0  0  0  0  0  0  0  0  0  0  0  0
    5.7764   -1.4605    0.0000 H   0  0  0  0  0  0  0  0  0  0  0  0
    6.8096   -0.0842    0.0000 H   0  0  0  0  0  0  0  0  0  0  0  0
    4.8800    1.4504    0.0000 H   0  0  0  0  0  0  0  0  0  0  0  0
    4.3203    0.9656    0.0000 H   0  0  0  0  0  0  0  0  0  0  0  0
    6.4330    0.1829    0.0000 H   0  0  0  0  0  0  0  0  0  0  0  0
  1  2  1  0  0  0  0
  2  3  1  0  0  0  0
  3  4  1  0  0  0  0
  4  5  1  0  0  0  0
  5  6  1  0  0  0  0
  6  7  1  0  0  0  0
  7  8  1  0  0  0  0
  8  9  1  0  0  0  0
  9 10  1  0  0  0  0
  8 11  1  0  0  0  0
 11 12  1  0  0  0  0
  1 13  1  0  0  0  0
  1 14  1  0  0  0  0
  1 15  1  0  0  0  0
  2 16  1  0  0  0  0
  2 17  1  0  0  0  0
  3 18  1  0  0  0  0
  3 19  1  0  0  0  0
  4 20  1  0  0  0  0
  4 21  1  0  0  0  0
  5 22  1  0  0  0  0
  5 23  1  0  0  0  0
  6 24  1  0  0  0  0
  6 25  1  0  0  0  0
  8 26  1  0  0  0  0
  9 27  1  0  0  0  0
  9 28  1  0  0  0  0
 10 29  1  0  0  0  0
 11 30  1  0  0  0  0
 11 31  1  0  0  0  0
 12 32  1  0  0  0  0
M  END
>  <id_input>
322

>  <InChIKey>
PXWAQUODOTWYMT-UHFFFAOYSA-N

>  <substance_name>
-

>  <casrn>
10305-38-1

>  <Molecular weight>
176.25331115722656

>  <guideline>
OECD Guideline 404 (Acute Dermal Irritation / Corrosion)

>  <species>
rabbit

>  <type_of_coverage>
semiocclusive

>  <max_duration(hrs)>
4.0

>  <vehicle>
unchanged (no vehicle)

>  <edema/ erythema score>
1.3

>  <max_score>
4.0

>  <reversibility>
0.0

>  <Outcome>
0

>  <StandardizerResult>
Remove Explicit Hydrogens (ID: RemoveExplicitH)
Clear Stereo (ID: ClearStereo)
Wedge Clean (ID: WedgeClean)
Mesomerize (ID: Mesomerize)
Tautomerize (ID: Tautomerize)
Add Explicit Hydrogens (ID: AddExplicitH)
Neutralize (ID: Neutralize)
Clean 2D (ID: Clean2D)


$$$$

  Mrv1812 02121911042D          

 17 16  0  0  0  0            999 V2000
    1.7720    2.1749    0.0000 C   0  0  0  0  0  0  0  0  0  0  0  0
    1.3595    1.4605    0.0000 C   0  0  0  0  0  0  0  0  0  0  0  0
    1.7720    0.7460    0.0000 C   0  0  0  0  0  0  0  0  0  0  0  0
    0.5345    1.4605    0.0000 C   0  0  0  0  0  0  0  0  0  0  0  0
    0.1220    0.7460    0.0000 C   0  0  0  0  0  0  0  0  0  0  0  0
    0.5345    0.0315    0.0000 C   0  0  0  0  0  0  0  0  0  0  0  0
   -0.7030    0.7460    0.0000 O   0  0  0  0  0  0  0  0  0  0  0  0
    2.4865    1.7624    0.0000 H   0  0  0  0  0  0  0  0  0  0  0  0
    2.1845    2.8894    0.0000 H   0  0  0  0  0  0  0  0  0  0  0  0
    1.0575    2.5874    0.0000 H   0  0  0  0  0  0  0  0  0  0  0  0
    1.0575    0.3335    0.0000 H   0  0  0  0  0  0  0  0  0  0  0  0
    2.1845    0.0315    0.0000 H   0  0  0  0  0  0  0  0  0  0  0  0
    2.4865    1.1585    0.0000 H   0  0  0  0  0  0  0  0  0  0  0  0
    0.1220    2.1749    0.0000 H   0  0  0  0  0  0  0  0  0  0  0  0
   -0.2835   -0.0762    0.0000 H   0  0  0  0  0  0  0  0  0  0  0  0
    0.3210   -0.7654    0.0000 H   0  0  0  0  0  0  0  0  0  0  0  0
    1.1890   -0.4707    0.0000 H   0  0  0  0  0  0  0  0  0  0  0  0
  1  2  1  0  0  0  0
  2  3  1  0  0  0  0
  2  4  2  0  0  0  0
  4  5  1  0  0  0  0
  5  6  1  0  0  0  0
  5  7  2  0  0  0  0
  1  8  1  0  0  0  0
  1  9  1  0  0  0  0
  1 10  1  0  0  0  0
  3 11  1  0  0  0  0
  3 12  1  0  0  0  0
  3 13  1  0  0  0  0
  4 14  1  0  0  0  0
  6 15  1  0  0  0  0
  6 16  1  0  0  0  0
  6 17  1  0  0  0  0
M  END
>  <id_input>
2922

>  <InChIKey>
SHOJXDKTYKFBRD-UHFFFAOYSA-N

>  <substance_name>
4-methylpent-3-en-2-one

>  <casrn>
141-79-7

>  <Molecular weight>
98.14300537109375

>  <guideline>
OECD Guideline 404 (Acute Dermal Irritation / Corrosion)

>  <species>
rabbit

>  <type_of_coverage>
semiocclusive

>  <max_duration(hrs)>
4.0

>  <vehicle>
unchanged (no vehicle)

>  <edema/ erythema score>
0.766666666666666

>  <max_score>
4.0

>  <reversibility>
0.0

>  <Outcome>
0

>  <StandardizerResult>
Remove Explicit Hydrogens (ID: RemoveExplicitH)
Clear Stereo (ID: ClearStereo)
Wedge Clean (ID: WedgeClean)
Mesomerize (ID: Mesomerize)
Tautomerize (ID: Tautomerize)
Add Explicit Hydrogens (ID: AddExplicitH)
Neutralize (ID: Neutralize)
Clean 2D (ID: Clean2D)


$$$$

  Mrv1812 02121911042D          

 27 28  0  0  0  0            999 V2000
    1.2079    1.6500    0.0000 O   0  0  0  0  0  0  0  0  0  0  0  0
    0.4934    1.2375    0.0000 C   0  0  0  0  0  0  0  0  0  0  0  0
   -0.2211    1.6500    0.0000 C   0  0  0  0  0  0  0  0  0  0  0  0
   -0.9356    1.2375    0.0000 C   0  0  0  0  0  0  0  0  0  0  0  0
   -0.9356    0.4125    0.0000 C   0  0  0  0  0  0  0  0  0  0  0  0
   -0.2211   -0.0000    0.0000 C   0  0  0  0  0  0  0  0  0  0  0  0
    0.4934    0.4125    0.0000 C   0  0  0  0  0  0  0  0  0  0  0  0
   -1.6500   -0.0000    0.0000 S   0  0  0  0  0  0  0  0  0  0  0  0
   -2.0625    0.7145    0.0000 O   0  0  0  0  0  0  0  0  0  0  0  0
   -1.2375   -0.7145    0.0000 O   0  0  0  0  0  0  0  0  0  0  0  0
   -2.3645   -0.4125    0.0000 C   0  0  0  0  0  0  0  0  0  0  0  0
   -3.0790   -0.0000    0.0000 C   0  0  0  0  0  0  0  0  0  0  0  0
   -3.7934   -0.4125    0.0000 C   0  0  0  0  0  0  0  0  0  0  0  0
   -3.7934   -1.2375    0.0000 C   0  0  0  0  0  0  0  0  0  0  0  0
   -4.5079   -1.6500    0.0000 O   0  0  0  0  0  0  0  0  0  0  0  0
   -3.0790   -1.6500    0.0000 C   0  0  0  0  0  0  0  0  0  0  0  0
   -2.3645   -1.2375    0.0000 C   0  0  0  0  0  0  0  0  0  0  0  0
    1.9223    1.2375    0.0000 H   0  0  0  0  0  0  0  0  0  0  0  0
   -0.2211    2.4750    0.0000 H   0  0  0  0  0  0  0  0  0  0  0  0
   -1.6500    1.6500    0.0000 H   0  0  0  0  0  0  0  0  0  0  0  0
   -0.2211   -0.8250    0.0000 H   0  0  0  0  0  0  0  0  0  0  0  0
    1.2079   -0.0000    0.0000 H   0  0  0  0  0  0  0  0  0  0  0  0
   -3.0790    0.8250    0.0000 H   0  0  0  0  0  0  0  0  0  0  0  0
   -4.5079   -0.0000    0.0000 H   0  0  0  0  0  0  0  0  0  0  0  0
   -5.2224   -1.2375    0.0000 H   0  0  0  0  0  0  0  0  0  0  0  0
   -3.0790   -2.4750    0.0000 H   0  0  0  0  0  0  0  0  0  0  0  0
   -1.6500   -1.6500    0.0000 H   0  0  0  0  0  0  0  0  0  0  0  0
  1  2  1  0  0  0  0
  3  2  4  0  0  0  0
  4  3  4  0  0  0  0
  5  4  4  0  0  0  0
  6  5  4  0  0  0  0
  7  6  4  0  0  0  0
  5  8  1  0  0  0  0
  8  9  2  0  0  0  0
  8 10  2  0  0  0  0
  8 11  1  0  0  0  0
 12 11  4  0  0  0  0
 13 12  4  0  0  0  0
 14 13  4  0  0  0  0
 14 15  1  0  0  0  0
 16 14  4  0  0  0  0
 17 16  4  0  0  0  0
  2  7  4  0  0  0  0
 11 17  4  0  0  0  0
  1 18  1  0  0  0  0
  3 19  1  0  0  0  0
  4 20  1  0  0  0  0
  6 21  1  0  0  0  0
  7 22  1  0  0  0  0
 12 23  1  0  0  0  0
 13 24  1  0  0  0  0
 15 25  1  0  0  0  0
 16 26  1  0  0  0  0
 17 27  1  0  0  0  0
M  END
>  <id_input>
2832

>  <InChIKey>
VPWNQTHUCYMVMZ-UHFFFAOYSA-N

>  <substance_name>
4-(4-hydroxybenzenesulfonyl)phenol

>  <casrn>
80-09-1

>  <Molecular weight>
250.27040100097656

>  <guideline>
OECD Guideline 404 (Acute Dermal Irritation / Corrosion)

>  <species>
rabbit

>  <type_of_coverage>
occlusive

>  <max_duration(hrs)>
4.0

>  <vehicle>
unchanged (no vehicle)

>  <edema/ erythema score>
0.0

>  <max_score>
4.0

>  <reversibility>
0.0

>  <Outcome>
0

>  <StandardizerResult>
Remove Explicit Hydrogens (ID: RemoveExplicitH)
Dearomatize (ID: Dearomatize)
Clear Stereo (ID: ClearStereo)
Wedge Clean (ID: WedgeClean)
Mesomerize (ID: Mesomerize)
Tautomerize (ID: Tautomerize)
Aromatize (ID: Aromatize)
Add Explicit Hydrogens (ID: AddExplicitH)
Neutralize (ID: Neutralize)
Clean 2D (ID: Clean2D)


$$$$

  Mrv1812 02121911042D          

 15 15  0  0  0  0            999 V2000
    1.4805    0.6325    0.0000 C   0  0  0  0  0  0  0  0  0  0  0  0
    0.7661    0.2200    0.0000 C   0  0  0  0  0  0  0  0  0  0  0  0
    0.0516    0.6325    0.0000 C   0  0  0  0  0  0  0  0  0  0  0  0
   -0.6629    0.2200    0.0000 C   0  0  0  0  0  0  0  0  0  0  0  0
   -0.6629   -0.6050    0.0000 C   0  0  0  0  0  0  0  0  0  0  0  0
   -1.3774   -1.0175    0.0000 Cl  0  0  0  0  0  0  0  0  0  0  0  0
    0.0516   -1.0175    0.0000 C   0  0  0  0  0  0  0  0  0  0  0  0
    0.0516   -1.8425    0.0000 Cl  0  0  0  0  0  0  0  0  0  0  0  0
    0.7661   -0.6050    0.0000 C   0  0  0  0  0  0  0  0  0  0  0  0
    1.8930   -0.0820    0.0000 H   0  0  0  0  0  0  0  0  0  0  0  0
    2.1950    1.0450    0.0000 H   0  0  0  0  0  0  0  0  0  0  0  0
    1.0680    1.3470    0.0000 H   0  0  0  0  0  0  0  0  0  0  0  0
    0.0516    1.4575    0.0000 H   0  0  0  0  0  0  0  0  0  0  0  0
   -1.3774    0.6325    0.0000 H   0  0  0  0  0  0  0  0  0  0  0  0
    1.4805   -1.0175    0.0000 H   0  0  0  0  0  0  0  0  0  0  0  0
  1  2  1  0  0  0  0
  3  2  4  0  0  0  0
  4  3  4  0  0  0  0
  5  4  4  0  0  0  0
  5  6  1  0  0  0  0
  7  5  4  0  0  0  0
  7  8  1  0  0  0  0
  9  7  4  0  0  0  0
  2  9  4  0  0  0  0
  1 10  1  0  0  0  0
  1 11  1  0  0  0  0
  1 12  1  0  0  0  0
  3 13  1  0  0  0  0
  4 14  1  0  0  0  0
  9 15  1  0  0  0  0
M  END
>  <id_input>
1728

>  <InChIKey>
WYUIWKFIFOJVKW-UHFFFAOYSA-N

>  <substance_name>
1,2-dichloro-4-methylbenzene

>  <casrn>
95-75-0

>  <Molecular weight>
161.02853393554688

>  <guideline>
OECD Guideline 404 (Acute Dermal Irritation / Corrosion)

>  <species>
rabbit

>  <type_of_coverage>
semiocclusive

>  <max_duration(hrs)>
4.0

>  <vehicle>
unchanged (no vehicle)

>  <edema/ erythema score>
1.4

>  <max_score>
4.0

>  <reversibility>
0.0

>  <Outcome>
0

>  <StandardizerResult>
Remove Explicit Hydrogens (ID: RemoveExplicitH)
Dearomatize (ID: Dearomatize)
Clear Stereo (ID: ClearStereo)
Wedge Clean (ID: WedgeClean)
Mesomerize (ID: Mesomerize)
Tautomerize (ID: Tautomerize)
Aromatize (ID: Aromatize)
Add Explicit Hydrogens (ID: AddExplicitH)
Neutralize (ID: Neutralize)
Clean 2D (ID: Clean2D)


$$$$

  Mrv1812 02121911042D          

 12 11  0  0  0  0            999 V2000
    1.1688   -0.6960    0.0000 N   0  0  0  0  0  0  0  0  0  0  0  0
    0.7563    0.0184    0.0000 N   0  0  0  0  0  0  0  0  0  0  0  0
   -0.0687    0.0184    0.0000 C   0  0  0  0  0  0  0  0  0  0  0  0
   -0.4812   -0.6960    0.0000 O   0  0  0  0  0  0  0  0  0  0  0  0
   -0.4812    0.7329    0.0000 N   0  0  0  0  0  0  0  0  0  0  0  0
   -1.3062    0.7329    0.0000 N   0  0  0  0  0  0  0  0  0  0  0  0
    0.7563   -1.4105    0.0000 H   0  0  0  0  0  0  0  0  0  0  0  0
    1.9938   -0.6960    0.0000 H   0  0  0  0  0  0  0  0  0  0  0  0
    1.1688    0.7329    0.0000 H   0  0  0  0  0  0  0  0  0  0  0  0
   -0.0687    1.4474    0.0000 H   0  0  0  0  0  0  0  0  0  0  0  0
   -1.7187    1.4474    0.0000 H   0  0  0  0  0  0  0  0  0  0  0  0
   -1.7187    0.0184    0.0000 H   0  0  0  0  0  0  0  0  0  0  0  0
  1  2  1  0  0  0  0
  2  3  1  0  0  0  0
  3  4  2  0  0  0  0
  3  5  1  0  0  0  0
  5  6  1  0  0  0  0
  1  7  1  0  0  0  0
  1  8  1  0  0  0  0
  2  9  1  0  0  0  0
  5 10  1  0  0  0  0
  6 11  1  0  0  0  0
  6 12  1  0  0  0  0
M  END
>  <id_input>
1766

>  <InChIKey>
XEVRDFDBXJMZFG-UHFFFAOYSA-N

>  <substance_name>
1,3-diaminourea

>  <casrn>
497-18-7

>  <Molecular weight>
90.08454132080078

>  <guideline>
OECD Guideline 404 (Acute Dermal Irritation / Corrosion)

>  <species>
rabbit

>  <type_of_coverage>
semiocclusive

>  <max_duration(hrs)>
4.0

>  <vehicle>
other: Test item was moistened with distilled water.

>  <edema/ erythema score>
0.11

>  <max_score>
4.0

>  <reversibility>
0.0

>  <Outcome>
0

>  <StandardizerResult>
Remove Explicit Hydrogens (ID: RemoveExplicitH)
Clear Stereo (ID: ClearStereo)
Wedge Clean (ID: WedgeClean)
Mesomerize (ID: Mesomerize)
Tautomerize (ID: Tautomerize)
Add Explicit Hydrogens (ID: AddExplicitH)
Neutralize (ID: Neutralize)
Clean 2D (ID: Clean2D)


$$$$

  Mrv1812 02121911042D          

 47 46  0  0  0  0            999 V2000
   -0.1195   -0.9933    0.0000 C   0  0  0  0  0  0  0  0  0  0  0  0
    0.5950   -0.5808    0.0000 Si  0  0  0  0  0  4  0  0  0  0  0  0
    1.0075   -1.2953    0.0000 C   0  0  0  0  0  0  0  0  0  0  0  0
    0.1825    0.1336    0.0000 C   0  0  0  0  0  0  0  0  0  0  0  0
    1.3094   -0.1683    0.0000 O   0  0  0  0  0  0  0  0  0  0  0  0
    1.3094    0.6567    0.0000 Si  0  0  0  0  0  4  0  0  0  0  0  0
    2.1344    0.6567    0.0000 C   0  0  0  0  0  0  0  0  0  0  0  0
    0.4844    0.6567    0.0000 C   0  0  0  0  0  0  0  0  0  0  0  0
    1.3094    1.4817    0.0000 O   0  0  0  0  0  0  0  0  0  0  0  0
    2.0239    1.8942    0.0000 Si  0  0  0  0  0  4  0  0  0  0  0  0
    2.4364    1.1797    0.0000 C   0  0  0  0  0  0  0  0  0  0  0  0
    1.6114    2.6086    0.0000 C   0  0  0  0  0  0  0  0  0  0  0  0
    2.7384    2.3067    0.0000 O   0  0  0  0  0  0  0  0  0  0  0  0
    2.7384    3.1317    0.0000 Si  0  0  0  0  0  4  0  0  0  0  0  0
    2.7384    3.9567    0.0000 C   0  0  0  0  0  0  0  0  0  0  0  0
    3.5634    3.1317    0.0000 C   0  0  0  0  0  0  0  0  0  0  0  0
    1.9134    3.1317    0.0000 C   0  0  0  0  0  0  0  0  0  0  0  0
   -0.5320   -0.2789    0.0000 H   0  0  0  0  0  0  0  0  0  0  0  0
   -0.8340   -1.4058    0.0000 H   0  0  0  0  0  0  0  0  0  0  0  0
    0.2930   -1.7078    0.0000 H   0  0  0  0  0  0  0  0  0  0  0  0
    1.1152   -2.1132    0.0000 H   0  0  0  0  0  0  0  0  0  0  0  0
    1.8044   -1.5088    0.0000 H   0  0  0  0  0  0  0  0  0  0  0  0
    1.5097   -0.6408    0.0000 H   0  0  0  0  0  0  0  0  0  0  0  0
   -0.0997    0.9089    0.0000 H   0  0  0  0  0  0  0  0  0  0  0  0
   -0.5928    0.4158    0.0000 H   0  0  0  0  0  0  0  0  0  0  0  0
    1.0075    0.1336    0.0000 H   0  0  0  0  0  0  0  0  0  0  0  0
    1.7219   -0.0578    0.0000 H   0  0  0  0  0  0  0  0  0  0  0  0
    2.5469   -0.0578    0.0000 H   0  0  0  0  0  0  0  0  0  0  0  0
    2.9594    0.6567    0.0000 H   0  0  0  0  0  0  0  0  0  0  0  0
    1.1241    1.1777    0.0000 H   0  0  0  0  0  0  0  0  0  0  0  0
    0.6514    1.4646    0.0000 H   0  0  0  0  0  0  0  0  0  0  0  0
    0.1037    1.3886    0.0000 H   0  0  0  0  0  0  0  0  0  0  0  0
    3.2489    1.3230    0.0000 H   0  0  0  0  0  0  0  0  0  0  0  0
    2.7851    1.9274    0.0000 H   0  0  0  0  0  0  0  0  0  0  0  0
    1.6114    1.1797    0.0000 H   0  0  0  0  0  0  0  0  0  0  0  0
    1.1989    3.3231    0.0000 H   0  0  0  0  0  0  0  0  0  0  0  0
    0.7864    2.6086    0.0000 H   0  0  0  0  0  0  0  0  0  0  0  0
    1.1989    1.8942    0.0000 H   0  0  0  0  0  0  0  0  0  0  0  0
    3.5634    3.9567    0.0000 H   0  0  0  0  0  0  0  0  0  0  0  0
    2.7384    4.7817    0.0000 H   0  0  0  0  0  0  0  0  0  0  0  0
    1.9134    3.9567    0.0000 H   0  0  0  0  0  0  0  0  0  0  0  0
    3.2477    2.3695    0.0000 H   0  0  0  0  0  0  0  0  0  0  0  0
    4.1467    2.5483    0.0000 H   0  0  0  0  0  0  0  0  0  0  0  0
    4.3256    3.4474    0.0000 H   0  0  0  0  0  0  0  0  0  0  0  0
    2.3259    2.4172    0.0000 H   0  0  0  0  0  0  0  0  0  0  0  0
    2.4967    3.7150    0.0000 H   0  0  0  0  0  0  0  0  0  0  0  0
    1.4112    3.7862    0.0000 H   0  0  0  0  0  0  0  0  0  0  0  0
  1  2  1  0  0  0  0
  2  3  1  0  0  0  0
  2  4  1  0  0  0  0
  2  5  1  0  0  0  0
  5  6  1  0  0  0  0
  6  7  1  0  0  0  0
  6  8  1  0  0  0  0
  6  9  1  0  0  0  0
  9 10  1  0  0  0  0
 10 11  1  0  0  0  0
 10 12  1  0  0  0  0
 10 13  1  0  0  0  0
 13 14  1  0  0  0  0
 14 15  1  0  0  0  0
 14 16  1  0  0  0  0
 14 17  1  0  0  0  0
  1 18  1  0  0  0  0
  1 19  1  0  0  0  0
  1 20  1  0  0  0  0
  3 21  1  0  0  0  0
  3 22  1  0  0  0  0
  3 23  1  0  0  0  0
  4 24  1  0  0  0  0
  4 25  1  0  0  0  0
  4 26  1  0  0  0  0
  7 27  1  0  0  0  0
  7 28  1  0  0  0  0
  7 29  1  0  0  0  0
  8 30  1  0  0  0  0
  8 31  1  0  0  0  0
  8 32  1  0  0  0  0
 11 33  1  0  0  0  0
 11 34  1  0  0  0  0
 11 35  1  0  0  0  0
 12 36  1  0  0  0  0
 12 37  1  0  0  0  0
 12 38  1  0  0  0  0
 15 39  1  0  0  0  0
 15 40  1  0  0  0  0
 15 41  1  0  0  0  0
 16 42  1  0  0  0  0
 16 43  1  0  0  0  0
 16 44  1  0  0  0  0
 17 45  1  0  0  0  0
 17 46  1  0  0  0  0
 17 47  1  0  0  0  0
M  END
>  <id_input>
2054

>  <InChIKey>
YFCGDEUVHLPRCZ-UHFFFAOYSA-N

>  <substance_name>
2,2,4,4,6,6,8,8-octamethyl-3,5,7-trioxa-2,4,6,8-tetrasilanonane

>  <casrn>
141-62-8

>  <Molecular weight>
310.6853942871094

>  <guideline>
OECD Guideline 404 (Acute Dermal Irritation / Corrosion)

>  <species>
rabbit

>  <type_of_coverage>
semiocclusive

>  <max_duration(hrs)>
4.0

>  <vehicle>
unchanged (no vehicle)

>  <edema/ erythema score>
0.0

>  <max_score>
4.0

>  <reversibility>
0.0

>  <Outcome>
0

>  <StandardizerResult>
Remove Explicit Hydrogens (ID: RemoveExplicitH)
Clear Stereo (ID: ClearStereo)
Wedge Clean (ID: WedgeClean)
Mesomerize (ID: Mesomerize)
Tautomerize (ID: Tautomerize)
Add Explicit Hydrogens (ID: AddExplicitH)
Neutralize (ID: Neutralize)
Clean 2D (ID: Clean2D)


$$$$

  Mrv1812 02121911042D          

 15 14  0  0  0  0            999 V2000
    0.0001   -0.0000    0.0000 C   0  0  0  0  0  0  0  0  0  0  0  0
    0.7145    0.4125    0.0000 C   0  0  0  0  0  0  0  0  0  0  0  0
    1.4290   -0.0000    0.0000 O   0  0  0  0  0  0  0  0  0  0  0  0
    2.1435    0.4125    0.0000 C   0  0  0  0  0  0  0  0  0  0  0  0
    2.1435    1.2375    0.0000 O   0  0  0  0  0  0  0  0  0  0  0  0
    2.8579   -0.0000    0.0000 C   0  0  0  0  0  0  0  0  0  0  0  0
    3.5724    0.4125    0.0000 C   0  0  0  0  0  0  0  0  0  0  0  0
    4.2869    0.8250    0.0000 N   0  0  0  0  0  0  0  0  0  0  0  0
   -0.4124    0.7145    0.0000 H   0  0  0  0  0  0  0  0  0  0  0  0
   -0.7144   -0.4125    0.0000 H   0  0  0  0  0  0  0  0  0  0  0  0
    0.4126   -0.7145    0.0000 H   0  0  0  0  0  0  0  0  0  0  0  0
    1.0848    1.1497    0.0000 H   0  0  0  0  0  0  0  0  0  0  0  0
    0.3443    1.1497    0.0000 H   0  0  0  0  0  0  0  0  0  0  0  0
    2.4877   -0.7372    0.0000 H   0  0  0  0  0  0  0  0  0  0  0  0
    3.2282   -0.7372    0.0000 H   0  0  0  0  0  0  0  0  0  0  0  0
  1  2  1  0  0  0  0
  2  3  1  0  0  0  0
  3  4  1  0  0  0  0
  4  5  2  0  0  0  0
  4  6  1  0  0  0  0
  6  7  1  0  0  0  0
  7  8  3  0  0  0  0
  1  9  1  0  0  0  0
  1 10  1  0  0  0  0
  1 11  1  0  0  0  0
  2 12  1  0  0  0  0
  2 13  1  0  0  0  0
  6 14  1  0  0  0  0
  6 15  1  0  0  0  0
M  END
>  <id_input>
4340

>  <InChIKey>
ZIUSEGSNTOUIPT-UHFFFAOYSA-N

>  <substance_name>
ethyl 2-cyanoacetate

>  <casrn>
105-56-6

>  <Molecular weight>
113.11457824707031

>  <guideline>
EU Method B.4 (Acute Toxicity: Dermal Irritation / Corrosion)

>  <species>
rabbit

>  <type_of_coverage>
semiocclusive

>  <max_duration(hrs)>
4.0

>  <vehicle>
unchanged (no vehicle)

>  <edema/ erythema score>
0.0

>  <reversibility>
0.0

>  <Outcome>
0

>  <StandardizerResult>
Remove Explicit Hydrogens (ID: RemoveExplicitH)
Clear Stereo (ID: ClearStereo)
Wedge Clean (ID: WedgeClean)
Mesomerize (ID: Mesomerize)
Tautomerize (ID: Tautomerize)
Add Explicit Hydrogens (ID: AddExplicitH)
Neutralize (ID: Neutralize)
Clean 2D (ID: Clean2D)


$$$$

  Mrv1812 02121911042D          

 20 20  0  0  0  0            999 V2000
    1.6786    0.7376    0.0000 C   0  0  0  0  0  0  0  0  0  0  0  0
    0.9641    1.1501    0.0000 O   0  0  0  0  0  0  0  0  0  0  0  0
    0.2496    0.7376    0.0000 C   0  0  0  0  0  0  0  0  0  0  0  0
   -0.4648    1.1501    0.0000 C   0  0  0  0  0  0  0  0  0  0  0  0
   -1.1793    0.7376    0.0000 C   0  0  0  0  0  0  0  0  0  0  0  0
   -1.1793   -0.0874    0.0000 C   0  0  0  0  0  0  0  0  0  0  0  0
   -0.4648   -0.4999    0.0000 C   0  0  0  0  0  0  0  0  0  0  0  0
    0.2496   -0.0874    0.0000 C   0  0  0  0  0  0  0  0  0  0  0  0
    0.9641   -0.4999    0.0000 O   0  0  0  0  0  0  0  0  0  0  0  0
    1.6786   -0.0874    0.0000 C   0  0  0  0  0  0  0  0  0  0  0  0
    2.3931    0.3251    0.0000 H   0  0  0  0  0  0  0  0  0  0  0  0
    2.3931    1.1501    0.0000 H   0  0  0  0  0  0  0  0  0  0  0  0
    1.6786    1.5626    0.0000 H   0  0  0  0  0  0  0  0  0  0  0  0
   -0.4648    1.9751    0.0000 H   0  0  0  0  0  0  0  0  0  0  0  0
   -1.8938    1.1501    0.0000 H   0  0  0  0  0  0  0  0  0  0  0  0
   -1.8938   -0.4999    0.0000 H   0  0  0  0  0  0  0  0  0  0  0  0
   -0.4648   -1.3249    0.0000 H   0  0  0  0  0  0  0  0  0  0  0  0
    1.8218   -0.8999    0.0000 H   0  0  0  0  0  0  0  0  0  0  0  0
    2.3106   -0.6177    0.0000 H   0  0  0  0  0  0  0  0  0  0  0  0
    0.9641    0.3251    0.0000 H   0  0  0  0  0  0  0  0  0  0  0  0
  1  2  1  0  0  0  0
  2  3  1  0  0  0  0
  4  3  4  0  0  0  0
  5  4  4  0  0  0  0
  6  5  4  0  0  0  0
  7  6  4  0  0  0  0
  8  7  4  0  0  0  0
  8  9  1  0  0  0  0
  9 10  1  0  0  0  0
  3  8  4  0  0  0  0
  1 11  1  0  0  0  0
  1 12  1  0  0  0  0
  1 13  1  0  0  0  0
  4 14  1  0  0  0  0
  5 15  1  0  0  0  0
  6 16  1  0  0  0  0
  7 17  1  0  0  0  0
 10 18  1  0  0  0  0
 10 19  1  0  0  0  0
 10 20  1  0  0  0  0
M  END
>  <id_input>
1737

>  <InChIKey>
ABDKAPXRBAPSQN-UHFFFAOYSA-N

>  <substance_name>
1,2-dimethoxybenzene

>  <casrn>
91-16-7

>  <Molecular weight>
138.16380310058594

>  <guideline>
OECD Guideline 404 (Acute Dermal Irritation / Corrosion)

>  <species>
rabbit

>  <type_of_coverage>
semiocclusive

>  <max_duration(hrs)>
4.0

>  <vehicle>
unchanged (no vehicle)

>  <edema/ erythema score>
1.0

>  <max_score>
4.0

>  <reversibility>
0.0

>  <Outcome>
0

>  <StandardizerResult>
Remove Explicit Hydrogens (ID: RemoveExplicitH)
Dearomatize (ID: Dearomatize)
Clear Stereo (ID: ClearStereo)
Wedge Clean (ID: WedgeClean)
Mesomerize (ID: Mesomerize)
Tautomerize (ID: Tautomerize)
Aromatize (ID: Aromatize)
Add Explicit Hydrogens (ID: AddExplicitH)
Neutralize (ID: Neutralize)
Clean 2D (ID: Clean2D)


$$$$

  Mrv1812 02121911042D          

 17 16  0  0  0  0            999 V2000
    2.8813   -0.3915    0.0000 C   0  0  0  0  0  0  0  0  0  0  0  0
    2.1668   -0.8040    0.0000 O   0  0  0  0  0  0  0  0  0  0  0  0
    1.4523   -0.3915    0.0000 P   0  0  0  0  0  0  0  0  0  0  0  0
    1.8648    0.3230    0.0000 O   0  0  0  0  0  0  0  0  0  0  0  0
    0.7379    0.0210    0.0000 O   0  0  0  0  0  0  0  0  0  0  0  0
    0.0234   -0.3915    0.0000 C   0  0  0  0  0  0  0  0  0  0  0  0
    1.0398   -1.1060    0.0000 C   0  0  0  0  0  0  0  0  0  0  0  0
    0.2148   -1.1060    0.0000 C   0  0  0  0  0  0  0  0  0  0  0  0
    3.2938   -1.1060    0.0000 H   0  0  0  0  0  0  0  0  0  0  0  0
    3.5957    0.0210    0.0000 H   0  0  0  0  0  0  0  0  0  0  0  0
    2.4688    0.3230    0.0000 H   0  0  0  0  0  0  0  0  0  0  0  0
   -0.0306    0.4317    0.0000 H   0  0  0  0  0  0  0  0  0  0  0  0
   -0.7388   -0.0758    0.0000 H   0  0  0  0  0  0  0  0  0  0  0  0
   -0.5969   -0.9355    0.0000 H   0  0  0  0  0  0  0  0  0  0  0  0
    1.4523   -1.8204    0.0000 H   0  0  0  0  0  0  0  0  0  0  0  0
   -0.1629   -1.8394    0.0000 H   0  0  0  0  0  0  0  0  0  0  0  0
    0.4337   -1.9014    0.0000 H   0  0  0  0  0  0  0  0  0  0  0  0
  1  2  1  0  0  0  0
  2  3  1  0  0  0  0
  3  4  2  0  0  0  0
  3  5  1  0  0  0  0
  5  6  1  0  0  0  0
  3  7  1  0  0  0  0
  7  8  2  0  0  0  0
  1  9  1  0  0  0  0
  1 10  1  0  0  0  0
  1 11  1  0  0  0  0
  6 12  1  0  0  0  0
  6 13  1  0  0  0  0
  6 14  1  0  0  0  0
  7 15  1  0  0  0  0
  8 16  1  0  0  0  0
  8 17  1  0  0  0  0
M  END
>  <id_input>
4179

>  <InChIKey>
CQCXMYUCNSJSKG-UHFFFAOYSA-N

>  <substance_name>
dimethyl ethenylphosphonate

>  <casrn>
4645-32-3

>  <Molecular weight>
136.0862274169922

>  <guideline>
OECD Guideline 404 (Acute Dermal Irritation / Corrosion)

>  <species>
rabbit

>  <type_of_coverage>
semiocclusive

>  <max_duration(hrs)>
4.0

>  <vehicle>
unchanged (no vehicle)

>  <edema/ erythema score>
0.566666666666666

>  <max_score>
4.0

>  <reversibility>
0.0

>  <Outcome>
0

>  <StandardizerResult>
Remove Explicit Hydrogens (ID: RemoveExplicitH)
Clear Stereo (ID: ClearStereo)
Wedge Clean (ID: WedgeClean)
Mesomerize (ID: Mesomerize)
Tautomerize (ID: Tautomerize)
Add Explicit Hydrogens (ID: AddExplicitH)
Neutralize (ID: Neutralize)
Clean 2D (ID: Clean2D)


$$$$

  Mrv1812 02121911042D          

 21 20  0  0  0  0            999 V2000
    0.9463    0.2214    0.0000 O   0  0  0  0  0  0  0  0  0  0  0  0
    0.2318   -0.1911    0.0000 C   0  0  0  0  0  0  0  0  0  0  0  0
   -0.4827    0.2214    0.0000 P   0  3  0  0  0  0  0  0  0  0  0  0
   -1.1972    0.6339    0.0000 C   0  0  0  0  0  0  0  0  0  0  0  0
   -1.9116    0.2214    0.0000 O   0  0  0  0  0  0  0  0  0  0  0  0
   -0.0702    0.9359    0.0000 C   0  0  0  0  0  0  0  0  0  0  0  0
   -0.4827    1.6504    0.0000 O   0  0  0  0  0  0  0  0  0  0  0  0
   -0.8952   -0.4930    0.0000 C   0  0  0  0  0  0  0  0  0  0  0  0
   -1.7202   -0.4930    0.0000 O   0  0  0  0  0  0  0  0  0  0  0  0
    1.6607   -0.1911    0.0000 H   0  0  0  0  0  0  0  0  0  0  0  0
   -0.1385   -0.9283    0.0000 H   0  0  0  0  0  0  0  0  0  0  0  0
    0.6020   -0.9283    0.0000 H   0  0  0  0  0  0  0  0  0  0  0  0
   -0.8269    1.3712    0.0000 H   0  0  0  0  0  0  0  0  0  0  0  0
   -1.5674    1.3712    0.0000 H   0  0  0  0  0  0  0  0  0  0  0  0
   -2.6738    0.5371    0.0000 H   0  0  0  0  0  0  0  0  0  0  0  0
    0.6671    0.5656    0.0000 H   0  0  0  0  0  0  0  0  0  0  0  0
    0.6671    1.3062    0.0000 H   0  0  0  0  0  0  0  0  0  0  0  0
   -0.3327    2.4616    0.0000 H   0  0  0  0  0  0  0  0  0  0  0  0
   -1.1081   -1.2901    0.0000 H   0  0  0  0  0  0  0  0  0  0  0  0
   -1.3077    0.2214    0.0000 H   0  0  0  0  0  0  0  0  0  0  0  0
   -2.2224   -1.1476    0.0000 H   0  0  0  0  0  0  0  0  0  0  0  0
  1  2  1  0  0  0  0
  2  3  1  0  0  0  0
  3  4  1  0  0  0  0
  4  5  1  0  0  0  0
  3  6  1  0  0  0  0
  6  7  1  0  0  0  0
  3  8  1  0  0  0  0
  8  9  1  0  0  0  0
  1 10  1  0  0  0  0
  2 11  1  0  0  0  0
  2 12  1  0  0  0  0
  4 13  1  0  0  0  0
  4 14  1  0  0  0  0
  5 15  1  0  0  0  0
  6 16  1  0  0  0  0
  6 17  1  0  0  0  0
  7 18  1  0  0  0  0
  8 19  1  0  0  0  0
  8 20  1  0  0  0  0
  9 21  1  0  0  0  0
M  CHG  1   3   1
M  END
>  <id_input>
3931

>  <InChIKey>
FAUOSXUSCVJWAY-UHFFFAOYSA-N

>  <substance_name>
bis(tetrakis(hydroxymethyl)phosphanium) sulfate

>  <casrn>
55566-30-8

>  <Molecular weight>
155.10943603515625

>  <guideline>
EPA OPP 81-5 (Acute Dermal Irritation)

>  <species>
rabbit

>  <type_of_coverage>
semiocclusive

>  <max_duration(hrs)>
4.0

>  <vehicle>
unchanged (no vehicle)

>  <edema/ erythema score>
0.0

>  <max_score>
4.0

>  <reversibility>
0.0

>  <Outcome>
0

>  <StandardizerResult>
Remove Explicit Hydrogens (ID: RemoveExplicitH)
Clear Stereo (ID: ClearStereo)
Wedge Clean (ID: WedgeClean)
Mesomerize (ID: Mesomerize)
Tautomerize (ID: Tautomerize)
Add Explicit Hydrogens (ID: AddExplicitH)
Clean 2D (ID: Clean2D)


$$$$

  Mrv1812 02121911042D          

113112  0  0  0  0            999 V2000
   -0.0126    0.3956    0.0000 C   0  0  0  0  0  0  0  0  0  0  0  0
    0.7019   -0.0169    0.0000 C   0  0  0  0  0  0  0  0  0  0  0  0
    1.4163    0.3956    0.0000 C   0  0  0  0  0  0  0  0  0  0  0  0
    2.1308   -0.0169    0.0000 C   0  0  0  0  0  0  0  0  0  0  0  0
    2.8453    0.3956    0.0000 C   0  0  0  0  0  0  0  0  0  0  0  0
    3.5597   -0.0169    0.0000 C   0  0  0  0  0  0  0  0  0  0  0  0
    4.2742    0.3956    0.0000 C   0  0  0  0  0  0  0  0  0  0  0  0
    4.9887   -0.0169    0.0000 C   0  0  0  0  0  0  0  0  0  0  0  0
    5.7032    0.3956    0.0000 C   0  0  0  0  0  0  0  0  0  0  0  0
    6.4176   -0.0169    0.0000 C   0  0  0  0  0  0  0  0  0  0  0  0
    7.1321    0.3956    0.0000 C   0  0  0  0  0  0  0  0  0  0  0  0
    7.8466   -0.0169    0.0000 C   0  0  0  0  0  0  0  0  0  0  0  0
    8.5610    0.3956    0.0000 C   0  0  0  0  0  0  0  0  0  0  0  0
    9.2755   -0.0169    0.0000 C   0  0  0  0  0  0  0  0  0  0  0  0
    9.9900    0.3956    0.0000 C   0  0  0  0  0  0  0  0  0  0  0  0
   10.7045   -0.0169    0.0000 C   0  0  0  0  0  0  0  0  0  0  0  0
   11.4189    0.3956    0.0000 C   0  0  0  0  0  0  0  0  0  0  0  0
   12.1334   -0.0169    0.0000 C   0  0  0  0  0  0  0  0  0  0  0  0
   12.8479    0.3956    0.0000 N   0  0  0  0  0  0  0  0  0  0  0  0
   13.5623   -0.0169    0.0000 C   0  0  0  0  0  0  0  0  0  0  0  0
   14.2768    0.3956    0.0000 C   0  0  0  0  0  0  0  0  0  0  0  0
   14.9913   -0.0169    0.0000 C   0  0  0  0  0  0  0  0  0  0  0  0
   15.7057    0.3956    0.0000 C   0  0  0  0  0  0  0  0  0  0  0  0
   16.4202   -0.0169    0.0000 C   0  0  0  0  0  0  0  0  0  0  0  0
   17.1347    0.3956    0.0000 C   0  0  0  0  0  0  0  0  0  0  0  0
   17.8492   -0.0169    0.0000 C   0  0  0  0  0  0  0  0  0  0  0  0
   18.5636    0.3956    0.0000 C   0  0  0  0  0  0  0  0  0  0  0  0
   19.2781   -0.0169    0.0000 C   0  0  0  0  0  0  0  0  0  0  0  0
   19.9926    0.3956    0.0000 C   0  0  0  0  0  0  0  0  0  0  0  0
   20.7070   -0.0169    0.0000 C   0  0  0  0  0  0  0  0  0  0  0  0
   21.4215    0.3956    0.0000 C   0  0  0  0  0  0  0  0  0  0  0  0
   22.1360   -0.0169    0.0000 C   0  0  0  0  0  0  0  0  0  0  0  0
   22.8505    0.3956    0.0000 C   0  0  0  0  0  0  0  0  0  0  0  0
   23.5649   -0.0169    0.0000 C   0  0  0  0  0  0  0  0  0  0  0  0
   24.2794    0.3956    0.0000 C   0  0  0  0  0  0  0  0  0  0  0  0
   24.9939   -0.0169    0.0000 C   0  0  0  0  0  0  0  0  0  0  0  0
   25.7083    0.3956    0.0000 C   0  0  0  0  0  0  0  0  0  0  0  0
   12.8479    1.2206    0.0000 O   0  0  0  0  0  0  0  0  0  0  0  0
    0.3999    1.1101    0.0000 H   0  0  0  0  0  0  0  0  0  0  0  0
   -0.7271    0.8081    0.0000 H   0  0  0  0  0  0  0  0  0  0  0  0
   -0.4251   -0.3189    0.0000 H   0  0  0  0  0  0  0  0  0  0  0  0
    0.3316   -0.7541    0.0000 H   0  0  0  0  0  0  0  0  0  0  0  0
    1.0721   -0.7541    0.0000 H   0  0  0  0  0  0  0  0  0  0  0  0
    1.7866    1.1329    0.0000 H   0  0  0  0  0  0  0  0  0  0  0  0
    1.0461    1.1329    0.0000 H   0  0  0  0  0  0  0  0  0  0  0  0
    1.7605   -0.7541    0.0000 H   0  0  0  0  0  0  0  0  0  0  0  0
    2.5011   -0.7541    0.0000 H   0  0  0  0  0  0  0  0  0  0  0  0
    3.2155    1.1329    0.0000 H   0  0  0  0  0  0  0  0  0  0  0  0
    2.4750    1.1329    0.0000 H   0  0  0  0  0  0  0  0  0  0  0  0
    3.1895   -0.7541    0.0000 H   0  0  0  0  0  0  0  0  0  0  0  0
    3.9300   -0.7541    0.0000 H   0  0  0  0  0  0  0  0  0  0  0  0
    4.6445    1.1329    0.0000 H   0  0  0  0  0  0  0  0  0  0  0  0
    3.9040    1.1329    0.0000 H   0  0  0  0  0  0  0  0  0  0  0  0
    4.6184   -0.7541    0.0000 H   0  0  0  0  0  0  0  0  0  0  0  0
    5.3589   -0.7541    0.0000 H   0  0  0  0  0  0  0  0  0  0  0  0
    6.0734    1.1329    0.0000 H   0  0  0  0  0  0  0  0  0  0  0  0
    5.3329    1.1329    0.0000 H   0  0  0  0  0  0  0  0  0  0  0  0
    6.0474   -0.7541    0.0000 H   0  0  0  0  0  0  0  0  0  0  0  0
    6.7879   -0.7541    0.0000 H   0  0  0  0  0  0  0  0  0  0  0  0
    7.5024    1.1329    0.0000 H   0  0  0  0  0  0  0  0  0  0  0  0
    6.7618    1.1329    0.0000 H   0  0  0  0  0  0  0  0  0  0  0  0
    7.4763   -0.7541    0.0000 H   0  0  0  0  0  0  0  0  0  0  0  0
    8.2168   -0.7541    0.0000 H   0  0  0  0  0  0  0  0  0  0  0  0
    8.9313    1.1329    0.0000 H   0  0  0  0  0  0  0  0  0  0  0  0
    8.1908    1.1329    0.0000 H   0  0  0  0  0  0  0  0  0  0  0  0
    8.9053   -0.7541    0.0000 H   0  0  0  0  0  0  0  0  0  0  0  0
    9.6458   -0.7541    0.0000 H   0  0  0  0  0  0  0  0  0  0  0  0
   10.3602    1.1329    0.0000 H   0  0  0  0  0  0  0  0  0  0  0  0
    9.6197    1.1329    0.0000 H   0  0  0  0  0  0  0  0  0  0  0  0
   10.3342   -0.7541    0.0000 H   0  0  0  0  0  0  0  0  0  0  0  0
   11.0747   -0.7541    0.0000 H   0  0  0  0  0  0  0  0  0  0  0  0
   11.7892    1.1329    0.0000 H   0  0  0  0  0  0  0  0  0  0  0  0
   11.0487    1.1329    0.0000 H   0  0  0  0  0  0  0  0  0  0  0  0
   11.7631   -0.7541    0.0000 H   0  0  0  0  0  0  0  0  0  0  0  0
   12.5037   -0.7541    0.0000 H   0  0  0  0  0  0  0  0  0  0  0  0
   13.1921   -0.7541    0.0000 H   0  0  0  0  0  0  0  0  0  0  0  0
   13.9326   -0.7541    0.0000 H   0  0  0  0  0  0  0  0  0  0  0  0
   14.6471    1.1329    0.0000 H   0  0  0  0  0  0  0  0  0  0  0  0
   13.9065    1.1329    0.0000 H   0  0  0  0  0  0  0  0  0  0  0  0
   14.6210   -0.7541    0.0000 H   0  0  0  0  0  0  0  0  0  0  0  0
   15.3615   -0.7541    0.0000 H   0  0  0  0  0  0  0  0  0  0  0  0
   16.0760    1.1329    0.0000 H   0  0  0  0  0  0  0  0  0  0  0  0
   15.3355    1.1329    0.0000 H   0  0  0  0  0  0  0  0  0  0  0  0
   16.0500   -0.7541    0.0000 H   0  0  0  0  0  0  0  0  0  0  0  0
   16.7905   -0.7541    0.0000 H   0  0  0  0  0  0  0  0  0  0  0  0
   17.5049    1.1329    0.0000 H   0  0  0  0  0  0  0  0  0  0  0  0
   16.7644    1.1329    0.0000 H   0  0  0  0  0  0  0  0  0  0  0  0
   17.4789   -0.7541    0.0000 H   0  0  0  0  0  0  0  0  0  0  0  0
   18.2194   -0.7541    0.0000 H   0  0  0  0  0  0  0  0  0  0  0  0
   18.9339    1.1329    0.0000 H   0  0  0  0  0  0  0  0  0  0  0  0
   18.1934    1.1329    0.0000 H   0  0  0  0  0  0  0  0  0  0  0  0
   18.9078   -0.7541    0.0000 H   0  0  0  0  0  0  0  0  0  0  0  0
   19.6484   -0.7541    0.0000 H   0  0  0  0  0  0  0  0  0  0  0  0
   20.3628    1.1329    0.0000 H   0  0  0  0  0  0  0  0  0  0  0  0
   19.6223    1.1329    0.0000 H   0  0  0  0  0  0  0  0  0  0  0  0
   20.3368   -0.7541    0.0000 H   0  0  0  0  0  0  0  0  0  0  0  0
   21.0773   -0.7541    0.0000 H   0  0  0  0  0  0  0  0  0  0  0  0
   21.7918    1.1329    0.0000 H   0  0  0  0  0  0  0  0  0  0  0  0
   21.0513    1.1329    0.0000 H   0  0  0  0  0  0  0  0  0  0  0  0
   21.7657   -0.7541    0.0000 H   0  0  0  0  0  0  0  0  0  0  0  0
   22.5062   -0.7541    0.0000 H   0  0  0  0  0  0  0  0  0  0  0  0
   23.2207    1.1329    0.0000 H   0  0  0  0  0  0  0  0  0  0  0  0
   22.4802    1.1329    0.0000 H   0  0  0  0  0  0  0  0  0  0  0  0
   23.1947   -0.7541    0.0000 H   0  0  0  0  0  0  0  0  0  0  0  0
   23.9352   -0.7541    0.0000 H   0  0  0  0  0  0  0  0  0  0  0  0
   24.6497    1.1329    0.0000 H   0  0  0  0  0  0  0  0  0  0  0  0
   23.9091    1.1329    0.0000 H   0  0  0  0  0  0  0  0  0  0  0  0
   24.6236   -0.7541    0.0000 H   0  0  0  0  0  0  0  0  0  0  0  0
   25.3641   -0.7541    0.0000 H   0  0  0  0  0  0  0  0  0  0  0  0
   26.1208   -0.3189    0.0000 H   0  0  0  0  0  0  0  0  0  0  0  0
   26.4228    0.8081    0.0000 H   0  0  0  0  0  0  0  0  0  0  0  0
   25.2958    1.1101    0.0000 H   0  0  0  0  0  0  0  0  0  0  0  0
   13.5623    1.6331    0.0000 H   0  0  0  0  0  0  0  0  0  0  0  0
  1  2  1  0  0  0  0
  2  3  1  0  0  0  0
  3  4  1  0  0  0  0
  4  5  1  0  0  0  0
  5  6  1  0  0  0  0
  6  7  1  0  0  0  0
  7  8  1  0  0  0  0
  8  9  1  0  0  0  0
  9 10  1  0  0  0  0
 10 11  1  0  0  0  0
 11 12  1  0  0  0  0
 12 13  1  0  0  0  0
 13 14  1  0  0  0  0
 14 15  1  0  0  0  0
 15 16  1  0  0  0  0
 16 17  1  0  0  0  0
 17 18  1  0  0  0  0
 18 19  1  0  0  0  0
 19 20  1  0  0  0  0
 20 21  1  0  0  0  0
 21 22  1  0  0  0  0
 22 23  1  0  0  0  0
 23 24  1  0  0  0  0
 24 25  1  0  0  0  0
 25 26  1  0  0  0  0
 26 27  1  0  0  0  0
 27 28  1  0  0  0  0
 28 29  1  0  0  0  0
 29 30  1  0  0  0  0
 30 31  1  0  0  0  0
 31 32  1  0  0  0  0
 32 33  1  0  0  0  0
 33 34  1  0  0  0  0
 34 35  1  0  0  0  0
 35 36  1  0  0  0  0
 36 37  1  0  0  0  0
 19 38  1  0  0  0  0
  1 39  1  0  0  0  0
  1 40  1  0  0  0  0
  1 41  1  0  0  0  0
  2 42  1  0  0  0  0
  2 43  1  0  0  0  0
  3 44  1  0  0  0  0
  3 45  1  0  0  0  0
  4 46  1  0  0  0  0
  4 47  1  0  0  0  0
  5 48  1  0  0  0  0
  5 49  1  0  0  0  0
  6 50  1  0  0  0  0
  6 51  1  0  0  0  0
  7 52  1  0  0  0  0
  7 53  1  0  0  0  0
  8 54  1  0  0  0  0
  8 55  1  0  0  0  0
  9 56  1  0  0  0  0
  9 57  1  0  0  0  0
 10 58  1  0  0  0  0
 10 59  1  0  0  0  0
 11 60  1  0  0  0  0
 11 61  1  0  0  0  0
 12 62  1  0  0  0  0
 12 63  1  0  0  0  0
 13 64  1  0  0  0  0
 13 65  1  0  0  0  0
 14 66  1  0  0  0  0
 14 67  1  0  0  0  0
 15 68  1  0  0  0  0
 15 69  1  0  0  0  0
 16 70  1  0  0  0  0
 16 71  1  0  0  0  0
 17 72  1  0  0  0  0
 17 73  1  0  0  0  0
 18 74  1  0  0  0  0
 18 75  1  0  0  0  0
 20 76  1  0  0  0  0
 20 77  1  0  0  0  0
 21 78  1  0  0  0  0
 21 79  1  0  0  0  0
 22 80  1  0  0  0  0
 22 81  1  0  0  0  0
 23 82  1  0  0  0  0
 23 83  1  0  0  0  0
 24 84  1  0  0  0  0
 24 85  1  0  0  0  0
 25 86  1  0  0  0  0
 25 87  1  0  0  0  0
 26 88  1  0  0  0  0
 26 89  1  0  0  0  0
 27 90  1  0  0  0  0
 27 91  1  0  0  0  0
 28 92  1  0  0  0  0
 28 93  1  0  0  0  0
 29 94  1  0  0  0  0
 29 95  1  0  0  0  0
 30 96  1  0  0  0  0
 30 97  1  0  0  0  0
 31 98  1  0  0  0  0
 31 99  1  0  0  0  0
 32100  1  0  0  0  0
 32101  1  0  0  0  0
 33102  1  0  0  0  0
 33103  1  0  0  0  0
 34104  1  0  0  0  0
 34105  1  0  0  0  0
 35106  1  0  0  0  0
 35107  1  0  0  0  0
 36108  1  0  0  0  0
 36109  1  0  0  0  0
 37110  1  0  0  0  0
 37111  1  0  0  0  0
 37112  1  0  0  0  0
 38113  1  0  0  0  0
M  END
>  <id_input>
1471

>  <InChIKey>
ITUWQZXQRZLLCR-UHFFFAOYSA-N

>  <substance_name>
-

>  <casrn>
143925-92-2

>  <Molecular weight>
537.98681640625

>  <guideline>
EU Method B.4 (Acute Toxicity: Dermal Irritation / Corrosion)

>  <species>
rabbit

>  <type_of_coverage>
occlusive

>  <max_duration(hrs)>
4.0

>  <vehicle>
other: 0.5 % (w/v) carboxymethylcellulose in 0.1 % (w/v) aqueous polysorbate 80

>  <edema/ erythema score>
0.553333333333333

>  <max_score>
4.0

>  <reversibility>
0.0

>  <Outcome>
0

>  <StandardizerResult>
Remove Explicit Hydrogens (ID: RemoveExplicitH)
Clear Stereo (ID: ClearStereo)
Wedge Clean (ID: WedgeClean)
Mesomerize (ID: Mesomerize)
Tautomerize (ID: Tautomerize)
Add Explicit Hydrogens (ID: AddExplicitH)
Neutralize (ID: Neutralize)
Clean 2D (ID: Clean2D)


$$$$

  Mrv1812 02121911042D          

 14 14  0  0  0  0            999 V2000
    0.5443   -1.0331    0.0000 C   0  0  0  0  0  0  0  0  0  0  0  0
    1.1763   -0.5028    0.0000 C   0  0  0  0  0  0  0  0  0  0  0  0
    1.9515   -0.7849    0.0000 O   0  0  0  0  0  0  0  0  0  0  0  0
    1.0330    0.3097    0.0000 C   0  0  0  0  0  0  0  0  0  0  0  0
    0.6205    1.0242    0.0000 C   0  0  0  0  0  0  0  0  0  0  0  0
    0.2080    0.3097    0.0000 C   0  0  0  0  0  0  0  0  0  0  0  0
    1.8083    0.5919    0.0000 Cl  0  0  0  0  0  0  0  0  0  0  0  0
    0.0140   -0.4011    0.0000 H   0  0  0  0  0  0  0  0  0  0  0  0
   -0.0877   -1.5634    0.0000 H   0  0  0  0  0  0  0  0  0  0  0  0
    1.0746   -1.6651    0.0000 H   0  0  0  0  0  0  0  0  0  0  0  0
    1.0739    1.7134    0.0000 H   0  0  0  0  0  0  0  0  0  0  0  0
    0.1672    1.7134    0.0000 H   0  0  0  0  0  0  0  0  0  0  0  0
   -0.3827    0.8856    0.0000 H   0  0  0  0  0  0  0  0  0  0  0  0
   -0.6168    0.3240    0.0000 H   0  0  0  0  0  0  0  0  0  0  0  0
  1  2  1  0  0  0  0
  2  3  2  0  0  0  0
  2  4  1  0  0  0  0
  5  4  1  0  0  0  0
  6  5  1  0  0  0  0
  4  7  1  0  0  0  0
  4  6  1  0  0  0  0
  1  8  1  0  0  0  0
  1  9  1  0  0  0  0
  1 10  1  0  0  0  0
  5 11  1  0  0  0  0
  5 12  1  0  0  0  0
  6 13  1  0  0  0  0
  6 14  1  0  0  0  0
M  END
>  <id_input>
172

>  <InChIKey>
KADOHHPNWMXGNG-UHFFFAOYSA-N

>  <substance_name>
-

>  <casrn>
63141-09-3

>  <Molecular weight>
118.56147766113281

>  <guideline>
EU Method B.4 (Acute Toxicity: Dermal Irritation / Corrosion)

>  <species>
rabbit

>  <type_of_coverage>
semiocclusive

>  <max_duration(hrs)>
4.0

>  <vehicle>
unchanged (no vehicle)

>  <edema/ erythema score>
0.88

>  <max_score>
1.0

>  <reversibility>
0.0

>  <Outcome>
0

>  <StandardizerResult>
Remove Explicit Hydrogens (ID: RemoveExplicitH)
Clear Stereo (ID: ClearStereo)
Wedge Clean (ID: WedgeClean)
Mesomerize (ID: Mesomerize)
Tautomerize (ID: Tautomerize)
Add Explicit Hydrogens (ID: AddExplicitH)
Neutralize (ID: Neutralize)
Clean 2D (ID: Clean2D)


$$$$

  Mrv1812 02121911042D          

 24 23  0  0  0  0            999 V2000
   -0.0889    0.4952    0.0000 C   0  0  0  0  0  0  0  0  0  0  0  0
    0.6255    0.0827    0.0000 C   0  0  0  0  0  0  0  0  0  0  0  0
    0.6255   -0.7423    0.0000 O   0  0  0  0  0  0  0  0  0  0  0  0
    1.3400    0.4952    0.0000 C   0  0  0  0  0  0  0  0  0  0  0  0
    2.0545    0.0827    0.0000 N   0  0  0  0  0  0  0  0  0  0  0  0
    2.7690    0.4952    0.0000 C   0  0  0  0  0  0  0  0  0  0  0  0
    3.4834    0.0827    0.0000 C   0  0  0  0  0  0  0  0  0  0  0  0
    4.1979    0.4952    0.0000 C   0  0  0  0  0  0  0  0  0  0  0  0
    3.4834   -0.7423    0.0000 O   0  0  0  0  0  0  0  0  0  0  0  0
    0.3236    1.2097    0.0000 H   0  0  0  0  0  0  0  0  0  0  0  0
   -0.8034    0.9077    0.0000 H   0  0  0  0  0  0  0  0  0  0  0  0
   -0.5014   -0.2193    0.0000 H   0  0  0  0  0  0  0  0  0  0  0  0
   -0.0889   -0.3298    0.0000 H   0  0  0  0  0  0  0  0  0  0  0  0
    1.0380   -1.4568    0.0000 H   0  0  0  0  0  0  0  0  0  0  0  0
    1.7103    1.2324    0.0000 H   0  0  0  0  0  0  0  0  0  0  0  0
    0.9698    1.2324    0.0000 H   0  0  0  0  0  0  0  0  0  0  0  0
    2.0545   -0.7423    0.0000 H   0  0  0  0  0  0  0  0  0  0  0  0
    3.1392    1.2324    0.0000 H   0  0  0  0  0  0  0  0  0  0  0  0
    2.3987    1.2324    0.0000 H   0  0  0  0  0  0  0  0  0  0  0  0
    3.4834    0.9077    0.0000 H   0  0  0  0  0  0  0  0  0  0  0  0
    4.4114   -0.3017    0.0000 H   0  0  0  0  0  0  0  0  0  0  0  0
    5.0229    0.4952    0.0000 H   0  0  0  0  0  0  0  0  0  0  0  0
    4.4114    1.2921    0.0000 H   0  0  0  0  0  0  0  0  0  0  0  0
    2.7690   -1.1548    0.0000 H   0  0  0  0  0  0  0  0  0  0  0  0
  1  2  1  0  0  0  0
  2  3  1  0  0  0  0
  2  4  1  0  0  0  0
  4  5  1  0  0  0  0
  5  6  1  0  0  0  0
  6  7  1  0  0  0  0
  7  8  1  0  0  0  0
  7  9  1  0  0  0  0
  1 10  1  0  0  0  0
  1 11  1  0  0  0  0
  1 12  1  0  0  0  0
  2 13  1  0  0  0  0
  3 14  1  0  0  0  0
  4 15  1  0  0  0  0
  4 16  1  0  0  0  0
  5 17  1  0  0  0  0
  6 18  1  0  0  0  0
  6 19  1  0  0  0  0
  7 20  1  0  0  0  0
  8 21  1  0  0  0  0
  8 22  1  0  0  0  0
  8 23  1  0  0  0  0
  9 24  1  0  0  0  0
M  END
>  <id_input>
1870

>  <InChIKey>
LVTYICIALWPMFW-UHFFFAOYSA-N

>  <substance_name>
1-[(2-hydroxypropyl)amino]propan-2-ol

>  <casrn>
110-97-4

>  <Molecular weight>
133.1887969970703

>  <guideline>
OECD Guideline 404 (Acute Dermal Irritation / Corrosion)

>  <species>
rabbit

>  <type_of_coverage>
semiocclusive

>  <max_duration(hrs)>
4.0

>  <vehicle>
unchanged (no vehicle)

>  <edema/ erythema score>
0.06

>  <max_score>
4.0

>  <reversibility>
0.0

>  <Outcome>
0

>  <StandardizerResult>
Remove Explicit Hydrogens (ID: RemoveExplicitH)
Clear Stereo (ID: ClearStereo)
Wedge Clean (ID: WedgeClean)
Mesomerize (ID: Mesomerize)
Tautomerize (ID: Tautomerize)
Add Explicit Hydrogens (ID: AddExplicitH)
Neutralize (ID: Neutralize)
Clean 2D (ID: Clean2D)


$$$$

  Mrv1812 02121911042D          

 28 28  0  0  0  0            999 V2000
   -0.2937   -2.0821    0.0000 C   0  0  0  0  0  0  0  0  0  0  0  0
    0.1188   -1.3676    0.0000 C   0  0  0  0  0  0  0  0  0  0  0  0
    0.9438   -1.3676    0.0000 C   0  0  0  0  0  0  0  0  0  0  0  0
    1.3563   -0.6531    0.0000 C   0  0  0  0  0  0  0  0  0  0  0  0
    2.1813   -0.6531    0.0000 C   0  0  0  0  0  0  0  0  0  0  0  0
    2.5938   -1.3676    0.0000 C   0  0  0  0  0  0  0  0  0  0  0  0
    3.0063   -2.0821    0.0000 N   0  0  0  0  0  0  0  0  0  0  0  0
    2.5938    0.0614    0.0000 C   0  0  0  0  0  0  0  0  0  0  0  0
    3.4188    0.0614    0.0000 C   0  0  0  0  0  0  0  0  0  0  0  0
    3.8313    0.7758    0.0000 C   0  0  0  0  0  0  0  0  0  0  0  0
    3.4188    1.4903    0.0000 C   0  0  0  0  0  0  0  0  0  0  0  0
    2.5938    1.4903    0.0000 C   0  0  0  0  0  0  0  0  0  0  0  0
    2.1813    0.7758    0.0000 C   0  0  0  0  0  0  0  0  0  0  0  0
   -1.0082   -1.6696    0.0000 H   0  0  0  0  0  0  0  0  0  0  0  0
   -0.7062   -2.7965    0.0000 H   0  0  0  0  0  0  0  0  0  0  0  0
    0.4208   -2.4946    0.0000 H   0  0  0  0  0  0  0  0  0  0  0  0
    0.0708   -0.5440    0.0000 H   0  0  0  0  0  0  0  0  0  0  0  0
   -0.5705   -0.9142    0.0000 H   0  0  0  0  0  0  0  0  0  0  0  0
    0.9918   -2.1912    0.0000 H   0  0  0  0  0  0  0  0  0  0  0  0
    1.6331   -1.8209    0.0000 H   0  0  0  0  0  0  0  0  0  0  0  0
    1.3083    0.1705    0.0000 H   0  0  0  0  0  0  0  0  0  0  0  0
    0.6670   -0.1998    0.0000 H   0  0  0  0  0  0  0  0  0  0  0  0
    1.7688   -1.3676    0.0000 H   0  0  0  0  0  0  0  0  0  0  0  0
    3.8313   -0.6531    0.0000 H   0  0  0  0  0  0  0  0  0  0  0  0
    4.6563    0.7758    0.0000 H   0  0  0  0  0  0  0  0  0  0  0  0
    3.8313    2.2048    0.0000 H   0  0  0  0  0  0  0  0  0  0  0  0
    2.1813    2.2048    0.0000 H   0  0  0  0  0  0  0  0  0  0  0  0
    1.3563    0.7758    0.0000 H   0  0  0  0  0  0  0  0  0  0  0  0
  1  2  1  0  0  0  0
  2  3  1  0  0  0  0
  3  4  1  0  0  0  0
  4  5  1  0  0  0  0
  5  6  1  0  0  0  0
  6  7  3  0  0  0  0
  5  8  1  0  0  0  0
  9  8  4  0  0  0  0
 10  9  4  0  0  0  0
 11 10  4  0  0  0  0
 12 11  4  0  0  0  0
 13 12  4  0  0  0  0
  8 13  4  0  0  0  0
  1 14  1  0  0  0  0
  1 15  1  0  0  0  0
  1 16  1  0  0  0  0
  2 17  1  0  0  0  0
  2 18  1  0  0  0  0
  3 19  1  0  0  0  0
  3 20  1  0  0  0  0
  4 21  1  0  0  0  0
  4 22  1  0  0  0  0
  5 23  1  0  0  0  0
  9 24  1  0  0  0  0
 10 25  1  0  0  0  0
 11 26  1  0  0  0  0
 12 27  1  0  0  0  0
 13 28  1  0  0  0  0
M  END
>  <id_input>
1580

>  <InChIKey>
OTERUZJEJFMEEB-UHFFFAOYSA-N

>  <substance_name>
-

>  <casrn>
3508-98-3

>  <Molecular weight>
173.2541961669922

>  <guideline>
EU Method B.4 (Acute Toxicity: Dermal Irritation / Corrosion)

>  <species>
rabbit

>  <type_of_coverage>
semiocclusive

>  <max_duration(hrs)>
4.0

>  <vehicle>
unchanged (no vehicle)

>  <edema/ erythema score>
1.22333333333333

>  <max_score>
4.0

>  <reversibility>
0.0

>  <Outcome>
0

>  <StandardizerResult>
Remove Explicit Hydrogens (ID: RemoveExplicitH)
Dearomatize (ID: Dearomatize)
Clear Stereo (ID: ClearStereo)
Wedge Clean (ID: WedgeClean)
Mesomerize (ID: Mesomerize)
Tautomerize (ID: Tautomerize)
Aromatize (ID: Aromatize)
Add Explicit Hydrogens (ID: AddExplicitH)
Neutralize (ID: Neutralize)
Clean 2D (ID: Clean2D)


$$$$

  Mrv1812 02121911042D          

 31 30  0  0  0  0            999 V2000
    0.0001    0.6331    0.0000 C   0  0  0  0  0  0  0  0  0  0  0  0
    0.7146    0.2206    0.0000 C   0  0  0  0  0  0  0  0  0  0  0  0
    1.4290    0.6331    0.0000 C   0  0  0  0  0  0  0  0  0  0  0  0
    2.1435    0.2206    0.0000 C   0  0  0  0  0  0  0  0  0  0  0  0
    2.8580    0.6331    0.0000 O   0  0  0  0  0  0  0  0  0  0  0  0
    3.5724    0.2206    0.0000 C   0  0  0  0  0  0  0  0  0  0  0  0
    4.2869    0.6331    0.0000 O   0  0  0  0  0  0  0  0  0  0  0  0
    5.0014    0.2206    0.0000 C   0  0  0  0  0  0  0  0  0  0  0  0
    5.7159    0.6331    0.0000 C   0  0  0  0  0  0  0  0  0  0  0  0
    6.4303    0.2206    0.0000 C   0  0  0  0  0  0  0  0  0  0  0  0
    7.1448    0.6331    0.0000 C   0  0  0  0  0  0  0  0  0  0  0  0
    0.4126    1.3476    0.0000 H   0  0  0  0  0  0  0  0  0  0  0  0
   -0.7144    1.0456    0.0000 H   0  0  0  0  0  0  0  0  0  0  0  0
   -0.4124   -0.0814    0.0000 H   0  0  0  0  0  0  0  0  0  0  0  0
    0.3443   -0.5166    0.0000 H   0  0  0  0  0  0  0  0  0  0  0  0
    1.0848   -0.5166    0.0000 H   0  0  0  0  0  0  0  0  0  0  0  0
    1.7993    1.3704    0.0000 H   0  0  0  0  0  0  0  0  0  0  0  0
    1.0588    1.3704    0.0000 H   0  0  0  0  0  0  0  0  0  0  0  0
    1.7732   -0.5166    0.0000 H   0  0  0  0  0  0  0  0  0  0  0  0
    2.5138   -0.5166    0.0000 H   0  0  0  0  0  0  0  0  0  0  0  0
    3.2022   -0.5166    0.0000 H   0  0  0  0  0  0  0  0  0  0  0  0
    3.9427   -0.5166    0.0000 H   0  0  0  0  0  0  0  0  0  0  0  0
    4.6311   -0.5166    0.0000 H   0  0  0  0  0  0  0  0  0  0  0  0
    5.3716   -0.5166    0.0000 H   0  0  0  0  0  0  0  0  0  0  0  0
    6.0861    1.3704    0.0000 H   0  0  0  0  0  0  0  0  0  0  0  0
    5.3456    1.3704    0.0000 H   0  0  0  0  0  0  0  0  0  0  0  0
    6.0601   -0.5166    0.0000 H   0  0  0  0  0  0  0  0  0  0  0  0
    6.8006   -0.5166    0.0000 H   0  0  0  0  0  0  0  0  0  0  0  0
    7.5573   -0.0814    0.0000 H   0  0  0  0  0  0  0  0  0  0  0  0
    7.8593    1.0456    0.0000 H   0  0  0  0  0  0  0  0  0  0  0  0
    6.7323    1.3476    0.0000 H   0  0  0  0  0  0  0  0  0  0  0  0
  1  2  1  0  0  0  0
  2  3  1  0  0  0  0
  3  4  1  0  0  0  0
  4  5  1  0  0  0  0
  5  6  1  0  0  0  0
  6  7  1  0  0  0  0
  7  8  1  0  0  0  0
  8  9  1  0  0  0  0
  9 10  1  0  0  0  0
 10 11  1  0  0  0  0
  1 12  1  0  0  0  0
  1 13  1  0  0  0  0
  1 14  1  0  0  0  0
  2 15  1  0  0  0  0
  2 16  1  0  0  0  0
  3 17  1  0  0  0  0
  3 18  1  0  0  0  0
  4 19  1  0  0  0  0
  4 20  1  0  0  0  0
  6 21  1  0  0  0  0
  6 22  1  0  0  0  0
  8 23  1  0  0  0  0
  8 24  1  0  0  0  0
  9 25  1  0  0  0  0
  9 26  1  0  0  0  0
 10 27  1  0  0  0  0
 10 28  1  0  0  0  0
 11 29  1  0  0  0  0
 11 30  1  0  0  0  0
 11 31  1  0  0  0  0
M  END
>  <id_input>
1672

>  <InChIKey>
QLCJOAMJPCOIDI-UHFFFAOYSA-N

>  <substance_name>
1,1'-[methylenebis(oxy)]dibutane

>  <casrn>
2568-90-3

>  <Molecular weight>
160.25390625

>  <guideline>
OECD Guideline 404 (Acute Dermal Irritation / Corrosion)

>  <species>
rabbit

>  <type_of_coverage>
semiocclusive

>  <max_duration(hrs)>
4.0

>  <vehicle>
unchanged (no vehicle)

>  <edema/ erythema score>
1.18181818181818

>  <max_score>
4.0

>  <reversibility>
0.0

>  <Outcome>
0

>  <StandardizerResult>
Remove Explicit Hydrogens (ID: RemoveExplicitH)
Clear Stereo (ID: ClearStereo)
Wedge Clean (ID: WedgeClean)
Mesomerize (ID: Mesomerize)
Tautomerize (ID: Tautomerize)
Add Explicit Hydrogens (ID: AddExplicitH)
Neutralize (ID: Neutralize)
Clean 2D (ID: Clean2D)


$$$$

  Mrv1812 02121911042D          

 32 33  0  0  0  0            999 V2000
   -0.0872    3.8338    0.0000 C   0  0  0  0  0  0  0  0  0  0  0  0
   -0.8017    3.4213    0.0000 C   0  0  0  0  0  0  0  0  0  0  0  0
   -1.5161    3.8338    0.0000 C   0  0  0  0  0  0  0  0  0  0  0  0
   -2.2306    3.4213    0.0000 O   0  0  0  0  0  0  0  0  0  0  0  0
   -2.9451    3.8338    0.0000 C   0  0  0  0  0  0  0  0  0  0  0  0
   -3.6595    3.4213    0.0000 C   0  0  0  0  0  0  0  0  0  0  0  0
   -4.4845    3.4213    0.0000 C   0  0  0  0  0  0  0  0  0  0  0  0
   -4.0720    2.7068    0.0000 O   0  0  0  0  0  0  0  0  0  0  0  0
    0.6273    3.4213    0.0000 C   0  0  0  0  0  0  0  0  0  0  0  0
    1.3418    3.8338    0.0000 O   0  0  0  0  0  0  0  0  0  0  0  0
    2.0562    3.4213    0.0000 C   0  0  0  0  0  0  0  0  0  0  0  0
    2.7707    3.8338    0.0000 C   0  0  0  0  0  0  0  0  0  0  0  0
    3.5957    3.8338    0.0000 C   0  0  0  0  0  0  0  0  0  0  0  0
    3.1832    4.5483    0.0000 O   0  0  0  0  0  0  0  0  0  0  0  0
    0.2831    4.5710    0.0000 H   0  0  0  0  0  0  0  0  0  0  0  0
   -0.4574    4.5710    0.0000 H   0  0  0  0  0  0  0  0  0  0  0  0
   -1.1719    2.6841    0.0000 H   0  0  0  0  0  0  0  0  0  0  0  0
   -0.4314    2.6841    0.0000 H   0  0  0  0  0  0  0  0  0  0  0  0
   -1.1459    4.5710    0.0000 H   0  0  0  0  0  0  0  0  0  0  0  0
   -1.8864    4.5710    0.0000 H   0  0  0  0  0  0  0  0  0  0  0  0
   -2.5748    4.5710    0.0000 H   0  0  0  0  0  0  0  0  0  0  0  0
   -3.3153    4.5710    0.0000 H   0  0  0  0  0  0  0  0  0  0  0  0
   -3.8731    4.2182    0.0000 H   0  0  0  0  0  0  0  0  0  0  0  0
   -4.8548    4.1585    0.0000 H   0  0  0  0  0  0  0  0  0  0  0  0
   -5.3081    3.3733    0.0000 H   0  0  0  0  0  0  0  0  0  0  0  0
    0.2570    2.6841    0.0000 H   0  0  0  0  0  0  0  0  0  0  0  0
    0.9975    2.6841    0.0000 H   0  0  0  0  0  0  0  0  0  0  0  0
    1.6860    2.6841    0.0000 H   0  0  0  0  0  0  0  0  0  0  0  0
    2.4265    2.6841    0.0000 H   0  0  0  0  0  0  0  0  0  0  0  0
    2.9842    3.0369    0.0000 H   0  0  0  0  0  0  0  0  0  0  0  0
    3.9660    3.0966    0.0000 H   0  0  0  0  0  0  0  0  0  0  0  0
    4.4193    3.8818    0.0000 H   0  0  0  0  0  0  0  0  0  0  0  0
  1  2  1  0  0  0  0
  2  3  1  0  0  0  0
  3  4  1  0  0  0  0
  4  5  1  0  0  0  0
  5  6  1  0  0  0  0
  7  6  1  0  0  0  0
  8  7  1  0  0  0  0
  1  9  1  0  0  0  0
  9 10  1  0  0  0  0
 10 11  1  0  0  0  0
 11 12  1  0  0  0  0
 13 12  1  0  0  0  0
 14 13  1  0  0  0  0
  6  8  1  0  0  0  0
 12 14  1  0  0  0  0
  1 15  1  0  0  0  0
  1 16  1  0  0  0  0
  2 17  1  0  0  0  0
  2 18  1  0  0  0  0
  3 19  1  0  0  0  0
  3 20  1  0  0  0  0
  5 21  1  0  0  0  0
  5 22  1  0  0  0  0
  6 23  1  0  0  0  0
  7 24  1  0  0  0  0
  7 25  1  0  0  0  0
  9 26  1  0  0  0  0
  9 27  1  0  0  0  0
 11 28  1  0  0  0  0
 11 29  1  0  0  0  0
 12 30  1  0  0  0  0
 13 31  1  0  0  0  0
 13 32  1  0  0  0  0
M  END
>  <id_input>
2627

>  <InChIKey>
SHKUUQIDMUMQQK-UHFFFAOYSA-N

>  <substance_name>
2-{[4-(oxiran-2-ylmethoxy)butoxy]methyl}oxirane

>  <casrn>
2425-79-8

>  <Molecular weight>
202.24752807617188

>  <guideline>
OECD Guideline 404 (Acute Dermal Irritation / Corrosion)

>  <species>
rabbit

>  <type_of_coverage>
semiocclusive

>  <max_duration(hrs)>
4.0

>  <vehicle>
unchanged (no vehicle)

>  <edema/ erythema score>
0.0

>  <max_score>
4.0

>  <reversibility>
0.0

>  <Outcome>
0

>  <StandardizerResult>
Remove Explicit Hydrogens (ID: RemoveExplicitH)
Clear Stereo (ID: ClearStereo)
Wedge Clean (ID: WedgeClean)
Mesomerize (ID: Mesomerize)
Tautomerize (ID: Tautomerize)
Add Explicit Hydrogens (ID: AddExplicitH)
Neutralize (ID: Neutralize)
Clean 2D (ID: Clean2D)


$$$$

  Mrv1812 02121911042D          

 67 66  0  0  0  0            999 V2000
   -5.8821   -2.0144    0.0000 C   0  0  0  0  0  0  0  0  0  0  0  0
   -5.1677   -2.4269    0.0000 C   0  0  0  0  0  0  0  0  0  0  0  0
   -4.4532   -2.0144    0.0000 C   0  0  0  0  0  0  0  0  0  0  0  0
   -3.7387   -2.4269    0.0000 C   0  0  0  0  0  0  0  0  0  0  0  0
   -3.0242   -2.0144    0.0000 C   0  0  0  0  0  0  0  0  0  0  0  0
   -2.3098   -2.4269    0.0000 C   0  0  0  0  0  0  0  0  0  0  0  0
   -1.5953   -2.0144    0.0000 C   0  0  0  0  0  0  0  0  0  0  0  0
   -0.8808   -2.4269    0.0000 C   0  0  0  0  0  0  0  0  0  0  0  0
   -0.1664   -2.0144    0.0000 C   0  0  0  0  0  0  0  0  0  0  0  0
    0.5481   -2.4269    0.0000 C   0  0  0  0  0  0  0  0  0  0  0  0
    1.2626   -2.0144    0.0000 C   0  0  0  0  0  0  0  0  0  0  0  0
    1.9770   -2.4269    0.0000 C   0  0  0  0  0  0  0  0  0  0  0  0
    2.6915   -2.0144    0.0000 C   0  0  0  0  0  0  0  0  0  0  0  0
    3.4060   -2.4269    0.0000 C   0  0  0  0  0  0  0  0  0  0  0  0
    4.1205   -2.0144    0.0000 C   0  0  0  0  0  0  0  0  0  0  0  0
    4.8349   -2.4269    0.0000 C   0  0  0  0  0  0  0  0  0  0  0  0
    5.5494   -2.0144    0.0000 C   0  0  0  0  0  0  0  0  0  0  0  0
    6.2639   -2.4269    0.0000 C   0  0  0  0  0  0  0  0  0  0  0  0
    6.9783   -2.0144    0.0000 C   0  0  0  0  0  0  0  0  0  0  0  0
    7.6928   -2.4269    0.0000 C   0  0  0  0  0  0  0  0  0  0  0  0
    8.4073   -2.0144    0.0000 C   0  0  0  0  0  0  0  0  0  0  0  0
    9.1218   -2.4269    0.0000 C   0  0  0  0  0  0  0  0  0  0  0  0
    9.8362   -2.0144    0.0000 N   0  0  0  0  0  0  0  0  0  0  0  0
    9.1218   -3.2519    0.0000 O   0  0  0  0  0  0  0  0  0  0  0  0
   -5.4696   -1.2999    0.0000 H   0  0  0  0  0  0  0  0  0  0  0  0
   -6.5966   -1.6019    0.0000 H   0  0  0  0  0  0  0  0  0  0  0  0
   -6.2946   -2.7289    0.0000 H   0  0  0  0  0  0  0  0  0  0  0  0
   -5.5379   -3.1641    0.0000 H   0  0  0  0  0  0  0  0  0  0  0  0
   -4.7974   -3.1641    0.0000 H   0  0  0  0  0  0  0  0  0  0  0  0
   -4.0829   -1.2772    0.0000 H   0  0  0  0  0  0  0  0  0  0  0  0
   -4.8235   -1.2772    0.0000 H   0  0  0  0  0  0  0  0  0  0  0  0
   -4.1090   -3.1641    0.0000 H   0  0  0  0  0  0  0  0  0  0  0  0
   -3.3685   -3.1641    0.0000 H   0  0  0  0  0  0  0  0  0  0  0  0
   -2.6540   -1.2772    0.0000 H   0  0  0  0  0  0  0  0  0  0  0  0
   -3.3945   -1.2772    0.0000 H   0  0  0  0  0  0  0  0  0  0  0  0
   -2.6800   -3.1641    0.0000 H   0  0  0  0  0  0  0  0  0  0  0  0
   -1.9395   -3.1641    0.0000 H   0  0  0  0  0  0  0  0  0  0  0  0
   -1.2250   -1.2772    0.0000 H   0  0  0  0  0  0  0  0  0  0  0  0
   -1.9656   -1.2772    0.0000 H   0  0  0  0  0  0  0  0  0  0  0  0
   -1.2511   -3.1641    0.0000 H   0  0  0  0  0  0  0  0  0  0  0  0
   -0.5106   -3.1641    0.0000 H   0  0  0  0  0  0  0  0  0  0  0  0
   -0.1664   -1.1894    0.0000 H   0  0  0  0  0  0  0  0  0  0  0  0
    0.5481   -3.2519    0.0000 H   0  0  0  0  0  0  0  0  0  0  0  0
    1.6328   -1.2772    0.0000 H   0  0  0  0  0  0  0  0  0  0  0  0
    0.8923   -1.2772    0.0000 H   0  0  0  0  0  0  0  0  0  0  0  0
    1.6068   -3.1641    0.0000 H   0  0  0  0  0  0  0  0  0  0  0  0
    2.3473   -3.1641    0.0000 H   0  0  0  0  0  0  0  0  0  0  0  0
    3.0618   -1.2772    0.0000 H   0  0  0  0  0  0  0  0  0  0  0  0
    2.3213   -1.2772    0.0000 H   0  0  0  0  0  0  0  0  0  0  0  0
    3.0357   -3.1641    0.0000 H   0  0  0  0  0  0  0  0  0  0  0  0
    3.7762   -3.1641    0.0000 H   0  0  0  0  0  0  0  0  0  0  0  0
    4.4907   -1.2772    0.0000 H   0  0  0  0  0  0  0  0  0  0  0  0
    3.7502   -1.2772    0.0000 H   0  0  0  0  0  0  0  0  0  0  0  0
    4.4647   -3.1641    0.0000 H   0  0  0  0  0  0  0  0  0  0  0  0
    5.2052   -3.1641    0.0000 H   0  0  0  0  0  0  0  0  0  0  0  0
    5.9197   -1.2772    0.0000 H   0  0  0  0  0  0  0  0  0  0  0  0
    5.1791   -1.2772    0.0000 H   0  0  0  0  0  0  0  0  0  0  0  0
    5.8936   -3.1641    0.0000 H   0  0  0  0  0  0  0  0  0  0  0  0
    6.6341   -3.1641    0.0000 H   0  0  0  0  0  0  0  0  0  0  0  0
    7.3486   -1.2772    0.0000 H   0  0  0  0  0  0  0  0  0  0  0  0
    6.6081   -1.2772    0.0000 H   0  0  0  0  0  0  0  0  0  0  0  0
    7.3226   -3.1641    0.0000 H   0  0  0  0  0  0  0  0  0  0  0  0
    8.0631   -3.1641    0.0000 H   0  0  0  0  0  0  0  0  0  0  0  0
    8.7775   -1.2772    0.0000 H   0  0  0  0  0  0  0  0  0  0  0  0
    8.0370   -1.2772    0.0000 H   0  0  0  0  0  0  0  0  0  0  0  0
   10.5507   -2.4269    0.0000 H   0  0  0  0  0  0  0  0  0  0  0  0
    9.8362   -1.1894    0.0000 H   0  0  0  0  0  0  0  0  0  0  0  0
  1  2  1  0  0  0  0
  2  3  1  0  0  0  0
  3  4  1  0  0  0  0
  4  5  1  0  0  0  0
  5  6  1  0  0  0  0
  6  7  1  0  0  0  0
  7  8  1  0  0  0  0
  9  8  1  4  0  0  0
  9 10  2  0  0  0  0
 10 11  1  0  0  0  0
 11 12  1  0  0  0  0
 12 13  1  0  0  0  0
 13 14  1  0  0  0  0
 14 15  1  0  0  0  0
 15 16  1  0  0  0  0
 16 17  1  0  0  0  0
 17 18  1  0  0  0  0
 18 19  1  0  0  0  0
 19 20  1  0  0  0  0
 20 21  1  0  0  0  0
 21 22  1  0  0  0  0
 22 23  1  0  0  0  0
 22 24  2  0  0  0  0
  1 25  1  0  0  0  0
  1 26  1  0  0  0  0
  1 27  1  0  0  0  0
  2 28  1  0  0  0  0
  2 29  1  0  0  0  0
  3 30  1  0  0  0  0
  3 31  1  0  0  0  0
  4 32  1  0  0  0  0
  4 33  1  0  0  0  0
  5 34  1  0  0  0  0
  5 35  1  0  0  0  0
  6 36  1  0  0  0  0
  6 37  1  0  0  0  0
  7 38  1  0  0  0  0
  7 39  1  0  0  0  0
  8 40  1  0  0  0  0
  8 41  1  0  0  0  0
  9 42  1  0  0  0  0
 10 43  1  0  0  0  0
 11 44  1  0  0  0  0
 11 45  1  0  0  0  0
 12 46  1  0  0  0  0
 12 47  1  0  0  0  0
 13 48  1  0  0  0  0
 13 49  1  0  0  0  0
 14 50  1  0  0  0  0
 14 51  1  0  0  0  0
 15 52  1  0  0  0  0
 15 53  1  0  0  0  0
 16 54  1  0  0  0  0
 16 55  1  0  0  0  0
 17 56  1  0  0  0  0
 17 57  1  0  0  0  0
 18 58  1  0  0  0  0
 18 59  1  0  0  0  0
 19 60  1  0  0  0  0
 19 61  1  0  0  0  0
 20 62  1  0  0  0  0
 20 63  1  0  0  0  0
 21 64  1  0  0  0  0
 21 65  1  0  0  0  0
 23 66  1  0  0  0  0
 23 67  1  0  0  0  0
M  END
>  <id_input>
8

>  <InChIKey>
UAUDZVJPLUQNMU-UHFFFAOYSA-N

>  <substance_name>
(13Z)-docos-13-enamide

>  <casrn>
112-84-5

>  <Molecular weight>
337.5829162597656

>  <guideline>
EU Method B.4 (Acute Toxicity: Dermal Irritation / Corrosion)

>  <species>
rabbit

>  <type_of_coverage>
semiocclusive

>  <max_duration(hrs)>
4.0

>  <vehicle>
water

>  <edema/ erythema score>
0.0

>  <max_score>
4.0

>  <reversibility>
0.0

>  <Outcome>
0

>  <StandardizerResult>
Remove Explicit Hydrogens (ID: RemoveExplicitH)
Clear Stereo (ID: ClearStereo)
Wedge Clean (ID: WedgeClean)
Mesomerize (ID: Mesomerize)
Tautomerize (ID: Tautomerize)
Add Explicit Hydrogens (ID: AddExplicitH)
Neutralize (ID: Neutralize)
Clean 2D (ID: Clean2D)


$$$$

  Mrv1812 02121911042D          

 19 19  0  0  0  0            999 V2000
    2.3784   -0.0737    0.0000 C   0  0  0  0  0  0  0  0  0  0  0  0
    1.6639    0.3388    0.0000 C   0  0  0  0  0  0  0  0  0  0  0  0
    1.6639    1.1638    0.0000 O   0  0  0  0  0  0  0  0  0  0  0  0
    0.9495   -0.0737    0.0000 C   0  0  0  0  0  0  0  0  0  0  0  0
    0.2350    0.3388    0.0000 C   0  0  0  0  0  0  0  0  0  0  0  0
   -0.4795   -0.0737    0.0000 C   0  0  0  0  0  0  0  0  0  0  0  0
   -0.4795   -0.8987    0.0000 C   0  0  0  0  0  0  0  0  0  0  0  0
    0.2350   -1.3112    0.0000 C   0  0  0  0  0  0  0  0  0  0  0  0
    0.9495   -0.8987    0.0000 C   0  0  0  0  0  0  0  0  0  0  0  0
    1.9659   -0.7882    0.0000 H   0  0  0  0  0  0  0  0  0  0  0  0
    3.0929   -0.4862    0.0000 H   0  0  0  0  0  0  0  0  0  0  0  0
    2.7909    0.6408    0.0000 H   0  0  0  0  0  0  0  0  0  0  0  0
    2.3784    0.7513    0.0000 H   0  0  0  0  0  0  0  0  0  0  0  0
    1.2514    1.8783    0.0000 H   0  0  0  0  0  0  0  0  0  0  0  0
    0.2350    1.1638    0.0000 H   0  0  0  0  0  0  0  0  0  0  0  0
   -1.1939    0.3388    0.0000 H   0  0  0  0  0  0  0  0  0  0  0  0
   -1.1939   -1.3112    0.0000 H   0  0  0  0  0  0  0  0  0  0  0  0
    0.2350   -2.1362    0.0000 H   0  0  0  0  0  0  0  0  0  0  0  0
    1.6639   -1.3112    0.0000 H   0  0  0  0  0  0  0  0  0  0  0  0
  1  2  1  0  0  0  0
  2  3  1  0  0  0  0
  2  4  1  0  0  0  0
  5  4  4  0  0  0  0
  6  5  4  0  0  0  0
  7  6  4  0  0  0  0
  8  7  4  0  0  0  0
  9  8  4  0  0  0  0
  4  9  4  0  0  0  0
  1 10  1  0  0  0  0
  1 11  1  0  0  0  0
  1 12  1  0  0  0  0
  2 13  1  0  0  0  0
  3 14  1  0  0  0  0
  5 15  1  0  0  0  0
  6 16  1  0  0  0  0
  7 17  1  0  0  0  0
  8 18  1  0  0  0  0
  9 19  1  0  0  0  0
M  END
>  <id_input>
1961

>  <InChIKey>
WAPNOHKVXSQRPX-UHFFFAOYSA-N

>  <substance_name>
1-phenylethan-1-ol

>  <casrn>
98-85-1

>  <Molecular weight>
122.1644058227539

>  <guideline>
OECD Guideline 404 (Acute Dermal Irritation / Corrosion)

>  <species>
rabbit

>  <type_of_coverage>
occlusive

>  <max_duration(hrs)>
4.0

>  <vehicle>
unchanged (no vehicle)

>  <edema/ erythema score>
0.0

>  <max_score>
4.0

>  <reversibility>
0.0

>  <Outcome>
0

>  <StandardizerResult>
Remove Explicit Hydrogens (ID: RemoveExplicitH)
Dearomatize (ID: Dearomatize)
Clear Stereo (ID: ClearStereo)
Wedge Clean (ID: WedgeClean)
Mesomerize (ID: Mesomerize)
Tautomerize (ID: Tautomerize)
Aromatize (ID: Aromatize)
Add Explicit Hydrogens (ID: AddExplicitH)
Neutralize (ID: Neutralize)
Clean 2D (ID: Clean2D)


$$$$

  Mrv1812 02121911042D          

 39 39  0  0  0  0            999 V2000
    1.4455    2.3450    0.0000 O   0  0  0  0  0  0  0  0  0  0  0  0
    0.6331    2.2017    0.0000 C   0  0  0  0  0  0  0  0  0  0  0  0
    0.1028    2.8337    0.0000 O   0  0  0  0  0  0  0  0  0  0  0  0
    0.3509    1.4265    0.0000 C   0  0  0  0  0  0  0  0  0  0  0  0
    1.1634    1.2832    0.0000 C   0  0  0  0  0  0  0  0  0  0  0  0
    1.4455    0.5079    0.0000 C   0  0  0  0  0  0  0  0  0  0  0  0
    0.9152   -0.1240    0.0000 C   0  0  0  0  0  0  0  0  0  0  0  0
    1.1974   -0.8993    0.0000 C   0  0  0  0  0  0  0  0  0  0  0  0
    2.2580    0.3647    0.0000 C   0  0  0  0  0  0  0  0  0  0  0  0
    2.5402   -0.4106    0.0000 C   0  0  0  0  0  0  0  0  0  0  0  0
   -0.3636    1.8390    0.0000 C   0  0  0  0  0  0  0  0  0  0  0  0
   -1.0781    1.4265    0.0000 C   0  0  0  0  0  0  0  0  0  0  0  0
   -1.0781    0.6015    0.0000 C   0  0  0  0  0  0  0  0  0  0  0  0
   -0.3636    0.1890    0.0000 C   0  0  0  0  0  0  0  0  0  0  0  0
    0.3509    0.6015    0.0000 C   0  0  0  0  0  0  0  0  0  0  0  0
    0.3849    3.6089    0.0000 H   0  0  0  0  0  0  0  0  0  0  0  0
    1.9209    1.6100    0.0000 H   0  0  0  0  0  0  0  0  0  0  0  0
    1.3536    2.0860    0.0000 H   0  0  0  0  0  0  0  0  0  0  0  0
    0.6331    0.6512    0.0000 H   0  0  0  0  0  0  0  0  0  0  0  0
    0.1932   -0.5232    0.0000 H   0  0  0  0  0  0  0  0  0  0  0  0
    1.7277   -0.2673    0.0000 H   0  0  0  0  0  0  0  0  0  0  0  0
    0.3755   -0.9712    0.0000 H   0  0  0  0  0  0  0  0  0  0  0  0
    1.0541   -1.7118    0.0000 H   0  0  0  0  0  0  0  0  0  0  0  0
    1.9451   -1.2479    0.0000 H   0  0  0  0  0  0  0  0  0  0  0  0
    3.0155    0.6915    0.0000 H   0  0  0  0  0  0  0  0  0  0  0  0
    2.4482    1.1674    0.0000 H   0  0  0  0  0  0  0  0  0  0  0  0
    2.1915   -1.1583    0.0000 H   0  0  0  0  0  0  0  0  0  0  0  0
    3.1721   -0.9409    0.0000 H   0  0  0  0  0  0  0  0  0  0  0  0
    3.2160    0.0626    0.0000 H   0  0  0  0  0  0  0  0  0  0  0  0
    0.0067    2.5762    0.0000 H   0  0  0  0  0  0  0  0  0  0  0  0
   -0.7338    2.5762    0.0000 H   0  0  0  0  0  0  0  0  0  0  0  0
   -1.5314    2.1157    0.0000 H   0  0  0  0  0  0  0  0  0  0  0  0
   -1.9017    1.4744    0.0000 H   0  0  0  0  0  0  0  0  0  0  0  0
   -1.9017    0.5535    0.0000 H   0  0  0  0  0  0  0  0  0  0  0  0
   -1.5314   -0.0878    0.0000 H   0  0  0  0  0  0  0  0  0  0  0  0
   -0.9047   -0.4338    0.0000 H   0  0  0  0  0  0  0  0  0  0  0  0
   -0.3636    1.0140    0.0000 H   0  0  0  0  0  0  0  0  0  0  0  0
    0.1926   -0.2082    0.0000 H   0  0  0  0  0  0  0  0  0  0  0  0
    0.8812    1.2334    0.0000 H   0  0  0  0  0  0  0  0  0  0  0  0
  1  2  2  0  0  0  0
  2  3  1  0  0  0  0
  2  4  1  0  0  0  0
  4  5  1  0  0  0  0
  5  6  1  0  0  0  0
  6  7  1  0  0  0  0
  7  8  1  0  0  0  0
  6  9  1  0  0  0  0
  9 10  1  0  0  0  0
 11  4  1  0  0  0  0
 12 11  1  0  0  0  0
 13 12  1  0  0  0  0
 14 13  1  0  0  0  0
 15 14  1  0  0  0  0
  4 15  1  0  0  0  0
  3 16  1  0  0  0  0
  5 17  1  0  0  0  0
  5 18  1  0  0  0  0
  6 19  1  0  0  0  0
  7 20  1  0  0  0  0
  7 21  1  0  0  0  0
  8 22  1  0  0  0  0
  8 23  1  0  0  0  0
  8 24  1  0  0  0  0
  9 25  1  0  0  0  0
  9 26  1  0  0  0  0
 10 27  1  0  0  0  0
 10 28  1  0  0  0  0
 10 29  1  0  0  0  0
 11 30  1  0  0  0  0
 11 31  1  0  0  0  0
 12 32  1  0  0  0  0
 12 33  1  0  0  0  0
 13 34  1  0  0  0  0
 13 35  1  0  0  0  0
 14 36  1  0  0  0  0
 14 37  1  0  0  0  0
 15 38  1  0  0  0  0
 15 39  1  0  0  0  0
M  END
>  <id_input>
1836

>  <InChIKey>
XRKJBJLXKLOLKS-UHFFFAOYSA-N

>  <substance_name>
1-(2-ethylbutyl)cyclohexane-1-carboxylic acid

>  <casrn>
381209-09-2

>  <Molecular weight>
212.32846069335938

>  <guideline>
OECD Guideline 404 (Acute Dermal Irritation / Corrosion)

>  <species>
rabbit

>  <type_of_coverage>
semiocclusive

>  <max_duration(hrs)>
4.0

>  <vehicle>
unchanged (no vehicle)

>  <edema/ erythema score>
1.3

>  <max_score>
4.0

>  <reversibility>
0.0

>  <Outcome>
0

>  <StandardizerResult>
Remove Explicit Hydrogens (ID: RemoveExplicitH)
Clear Stereo (ID: ClearStereo)
Wedge Clean (ID: WedgeClean)
Mesomerize (ID: Mesomerize)
Tautomerize (ID: Tautomerize)
Add Explicit Hydrogens (ID: AddExplicitH)
Neutralize (ID: Neutralize)
Clean 2D (ID: Clean2D)


$$$$

  Mrv1812 02121911042D          

 26 27  0  0  0  0            999 V2000
    1.1179    2.4728    0.0000 N   0  0  0  0  0  0  0  0  0  0  0  0
    0.4035    2.0603    0.0000 C   0  0  0  0  0  0  0  0  0  0  0  0
   -0.3110    2.4728    0.0000 C   0  0  0  0  0  0  0  0  0  0  0  0
   -1.0255    2.0603    0.0000 C   0  0  0  0  0  0  0  0  0  0  0  0
   -1.0255    1.2353    0.0000 C   0  0  0  0  0  0  0  0  0  0  0  0
   -1.7399    0.8228    0.0000 N   0  0  0  0  0  0  0  0  0  0  0  0
   -1.7399   -0.0022    0.0000 C   0  0  0  0  0  0  0  0  0  0  0  0
   -2.4544   -0.4147    0.0000 C   0  0  0  0  0  0  0  0  0  0  0  0
   -2.4544   -1.2397    0.0000 C   0  0  0  0  0  0  0  0  0  0  0  0
   -1.7399   -1.6522    0.0000 C   0  0  0  0  0  0  0  0  0  0  0  0
   -1.0255   -1.2397    0.0000 C   0  0  0  0  0  0  0  0  0  0  0  0
   -1.0255   -0.4147    0.0000 C   0  0  0  0  0  0  0  0  0  0  0  0
   -0.3110    0.8228    0.0000 C   0  0  0  0  0  0  0  0  0  0  0  0
    0.4035    1.2353    0.0000 C   0  0  0  0  0  0  0  0  0  0  0  0
    1.8324    2.0603    0.0000 H   0  0  0  0  0  0  0  0  0  0  0  0
    1.1179    3.2978    0.0000 H   0  0  0  0  0  0  0  0  0  0  0  0
   -0.3110    3.2978    0.0000 H   0  0  0  0  0  0  0  0  0  0  0  0
   -1.7399    2.4728    0.0000 H   0  0  0  0  0  0  0  0  0  0  0  0
   -2.4544    1.2353    0.0000 H   0  0  0  0  0  0  0  0  0  0  0  0
   -3.1689   -0.0022    0.0000 H   0  0  0  0  0  0  0  0  0  0  0  0
   -3.1689   -1.6522    0.0000 H   0  0  0  0  0  0  0  0  0  0  0  0
   -1.7399   -2.4772    0.0000 H   0  0  0  0  0  0  0  0  0  0  0  0
   -0.3110   -1.6522    0.0000 H   0  0  0  0  0  0  0  0  0  0  0  0
   -0.3110   -0.0022    0.0000 H   0  0  0  0  0  0  0  0  0  0  0  0
   -1.0255    0.4103    0.0000 H   0  0  0  0  0  0  0  0  0  0  0  0
    1.1179    0.8228    0.0000 H   0  0  0  0  0  0  0  0  0  0  0  0
  1  2  1  0  0  0  0
  3  2  4  0  0  0  0
  4  3  4  0  0  0  0
  5  4  4  0  0  0  0
  5  6  1  0  0  0  0
  6  7  1  0  0  0  0
  8  7  4  0  0  0  0
  9  8  4  0  0  0  0
 10  9  4  0  0  0  0
 11 10  4  0  0  0  0
 12 11  4  0  0  0  0
 13  5  4  0  0  0  0
 14 13  4  0  0  0  0
  2 14  4  0  0  0  0
  7 12  4  0  0  0  0
  1 15  1  0  0  0  0
  1 16  1  0  0  0  0
  3 17  1  0  0  0  0
  4 18  1  0  0  0  0
  6 19  1  0  0  0  0
  8 20  1  0  0  0  0
  9 21  1  0  0  0  0
 10 22  1  0  0  0  0
 11 23  1  0  0  0  0
 12 24  1  0  0  0  0
 13 25  1  0  0  0  0
 14 26  1  0  0  0  0
M  END
>  <id_input>
1863, 1864

>  <InChIKey>
ATGUVEKSASEFFO-UHFFFAOYSA-N

>  <substance_name>
1-N-phenylbenzene-1,4-diamine

>  <casrn>
101-54-2

>  <Molecular weight>
184.23707580566406

>  <guideline>
other: FIFRA volume 43, no. 143 August 22, 1978, part 163.81-5; TSCA volume 44, no. 145, July 26, 1979, part 772. 112-25 (EPA); FIFRA US EPA November 1982, Section 81-5 primary dermal irritation study; TSCA US EPA august 1982, acute exposure, pimary dermal irrit

>  <species>
rabbit

>  <type_of_coverage>
semiocclusive

>  <max_duration(hrs)>
14.0

>  <vehicle>
unchanged (no vehicle)

>  <edema/ erythema score>
0.25

>  <max_score>
4.0

>  <reversibility>
0.0

>  <Outcome>
0

>  <StandardizerResult>
Remove Explicit Hydrogens (ID: RemoveExplicitH)
Dearomatize (ID: Dearomatize)
Clear Stereo (ID: ClearStereo)
Wedge Clean (ID: WedgeClean)
Mesomerize (ID: Mesomerize)
Tautomerize (ID: Tautomerize)
Aromatize (ID: Aromatize)
Add Explicit Hydrogens (ID: AddExplicitH)
Neutralize (ID: Neutralize)
Clean 2D (ID: Clean2D)


$$$$

  Mrv1812 02121911042D          

 42 42  0  0  0  0            999 V2000
   -0.1882    2.7414    0.0000 C   0  0  0  0  0  0  0  0  0  0  0  0
    0.5263    3.1539    0.0000 C   0  0  0  0  0  0  0  0  0  0  0  0
    1.2408    2.7414    0.0000 C   0  0  0  0  0  0  0  0  0  0  0  0
    1.9552    3.1539    0.0000 C   0  0  0  0  0  0  0  0  0  0  0  0
    2.6697    2.7414    0.0000 O   0  0  0  0  0  0  0  0  0  0  0  0
    2.6697    1.9164    0.0000 C   0  0  0  0  0  0  0  0  0  0  0  0
    3.3842    1.5039    0.0000 O   0  0  0  0  0  0  0  0  0  0  0  0
    1.9552    1.5039    0.0000 C   0  0  0  0  0  0  0  0  0  0  0  0
    1.2408    1.9164    0.0000 C   0  0  0  0  0  0  0  0  0  0  0  0
    0.5263    1.5039    0.0000 C   0  0  0  0  0  0  0  0  0  0  0  0
    0.5263    0.6789    0.0000 C   0  0  0  0  0  0  0  0  0  0  0  0
    1.2408    0.2664    0.0000 C   0  0  0  0  0  0  0  0  0  0  0  0
    1.9552    0.6789    0.0000 C   0  0  0  0  0  0  0  0  0  0  0  0
    2.6697    0.2664    0.0000 C   0  0  0  0  0  0  0  0  0  0  0  0
    2.6697   -0.5586    0.0000 O   0  0  0  0  0  0  0  0  0  0  0  0
    3.3842    0.6789    0.0000 O   0  0  0  0  0  0  0  0  0  0  0  0
    4.0987    0.2664    0.0000 C   0  0  0  0  0  0  0  0  0  0  0  0
    4.8131    0.6789    0.0000 C   0  0  0  0  0  0  0  0  0  0  0  0
    5.5276    0.2664    0.0000 C   0  0  0  0  0  0  0  0  0  0  0  0
    6.2421    0.6789    0.0000 C   0  0  0  0  0  0  0  0  0  0  0  0
   -0.6007    3.4558    0.0000 H   0  0  0  0  0  0  0  0  0  0  0  0
   -0.9026    2.3289    0.0000 H   0  0  0  0  0  0  0  0  0  0  0  0
    0.2243    2.0269    0.0000 H   0  0  0  0  0  0  0  0  0  0  0  0
    0.8966    3.8911    0.0000 H   0  0  0  0  0  0  0  0  0  0  0  0
    0.1560    3.8911    0.0000 H   0  0  0  0  0  0  0  0  0  0  0  0
    0.5263    2.3289    0.0000 H   0  0  0  0  0  0  0  0  0  0  0  0
    1.9552    2.3289    0.0000 H   0  0  0  0  0  0  0  0  0  0  0  0
    2.3255    3.8911    0.0000 H   0  0  0  0  0  0  0  0  0  0  0  0
    1.5850    3.8911    0.0000 H   0  0  0  0  0  0  0  0  0  0  0  0
    1.2408    1.0914    0.0000 H   0  0  0  0  0  0  0  0  0  0  0  0
   -0.2706    1.2904    0.0000 H   0  0  0  0  0  0  0  0  0  0  0  0
   -0.1882    0.2664    0.0000 H   0  0  0  0  0  0  0  0  0  0  0  0
    1.2408   -0.5586    0.0000 H   0  0  0  0  0  0  0  0  0  0  0  0
    3.7284   -0.4709    0.0000 H   0  0  0  0  0  0  0  0  0  0  0  0
    4.4689   -0.4709    0.0000 H   0  0  0  0  0  0  0  0  0  0  0  0
    5.1834    1.4161    0.0000 H   0  0  0  0  0  0  0  0  0  0  0  0
    4.4429    1.4161    0.0000 H   0  0  0  0  0  0  0  0  0  0  0  0
    5.1573   -0.4709    0.0000 H   0  0  0  0  0  0  0  0  0  0  0  0
    5.8979   -0.4709    0.0000 H   0  0  0  0  0  0  0  0  0  0  0  0
    6.6546   -0.0356    0.0000 H   0  0  0  0  0  0  0  0  0  0  0  0
    6.9565    1.0914    0.0000 H   0  0  0  0  0  0  0  0  0  0  0  0
    5.8296    1.3933    0.0000 H   0  0  0  0  0  0  0  0  0  0  0  0
  1  2  1  0  0  0  0
  2  3  1  0  0  0  0
  3  4  1  0  0  0  0
  4  5  1  0  0  0  0
  5  6  1  0  0  0  0
  6  7  2  0  0  0  0
  6  8  1  0  0  0  0
  9  8  4  0  0  0  0
 10  9  4  0  0  0  0
 11 10  4  0  0  0  0
 12 11  4  0  0  0  0
 13 12  4  0  0  0  0
 13 14  1  0  0  0  0
 14 15  2  0  0  0  0
 14 16  1  0  0  0  0
 16 17  1  0  0  0  0
 17 18  1  0  0  0  0
 18 19  1  0  0  0  0
 19 20  1  0  0  0  0
  8 13  4  0  0  0  0
  1 21  1  0  0  0  0
  1 22  1  0  0  0  0
  1 23  1  0  0  0  0
  2 24  1  0  0  0  0
  2 25  1  0  0  0  0
  3 26  1  0  0  0  0
  3 27  1  0  0  0  0
  4 28  1  0  0  0  0
  4 29  1  0  0  0  0
  9 30  1  0  0  0  0
 10 31  1  0  0  0  0
 11 32  1  0  0  0  0
 12 33  1  0  0  0  0
 17 34  1  0  0  0  0
 17 35  1  0  0  0  0
 18 36  1  0  0  0  0
 18 37  1  0  0  0  0
 19 38  1  0  0  0  0
 19 39  1  0  0  0  0
 20 40  1  0  0  0  0
 20 41  1  0  0  0  0
 20 42  1  0  0  0  0
M  END
>  <id_input>
1723, 1724, 1725

>  <InChIKey>
DOIRQSBPFJWKBE-UHFFFAOYSA-N

>  <substance_name>
1,2-dibutyl benzene-1,2-dicarboxylate

>  <casrn>
84-74-2

>  <Molecular weight>
278.3434753417969

>  <guideline>
OECD Guideline 404 (Acute Dermal Irritation / Corrosion)

>  <species>
rabbit

>  <type_of_coverage>
semiocclusive

>  <max_duration(hrs)>
4.0

>  <vehicle>
unchanged (no vehicle)

>  <edema/ erythema score>
0.3

>  <max_score>
4.0

>  <reversibility>
0.0

>  <Outcome>
0

>  <StandardizerResult>
Remove Explicit Hydrogens (ID: RemoveExplicitH)
Dearomatize (ID: Dearomatize)
Clear Stereo (ID: ClearStereo)
Wedge Clean (ID: WedgeClean)
Mesomerize (ID: Mesomerize)
Tautomerize (ID: Tautomerize)
Aromatize (ID: Aromatize)
Add Explicit Hydrogens (ID: AddExplicitH)
Neutralize (ID: Neutralize)
Clean 2D (ID: Clean2D)


$$$$

  Mrv1812 02121911042D          

 16 16  0  0  0  0            999 V2000
    1.3691    1.0483    0.0000 N   0  0  0  0  0  0  0  0  0  0  0  0
    0.6546    0.6358    0.0000 C   0  0  0  0  0  0  0  0  0  0  0  0
   -0.0598    1.0483    0.0000 C   0  0  0  0  0  0  0  0  0  0  0  0
   -0.7743    0.6358    0.0000 C   0  0  0  0  0  0  0  0  0  0  0  0
   -0.7743   -0.1892    0.0000 C   0  0  0  0  0  0  0  0  0  0  0  0
   -0.0598   -0.6017    0.0000 C   0  0  0  0  0  0  0  0  0  0  0  0
    0.6546   -0.1892    0.0000 C   0  0  0  0  0  0  0  0  0  0  0  0
    1.3691   -0.6017    0.0000 N   0  0  0  0  0  0  0  0  0  0  0  0
    2.0836    0.6358    0.0000 H   0  0  0  0  0  0  0  0  0  0  0  0
    1.3691    1.8733    0.0000 H   0  0  0  0  0  0  0  0  0  0  0  0
   -0.0598    1.8733    0.0000 H   0  0  0  0  0  0  0  0  0  0  0  0
   -1.4888    1.0483    0.0000 H   0  0  0  0  0  0  0  0  0  0  0  0
   -1.4888   -0.6017    0.0000 H   0  0  0  0  0  0  0  0  0  0  0  0
   -0.0598   -1.4267    0.0000 H   0  0  0  0  0  0  0  0  0  0  0  0
    1.3691   -1.4267    0.0000 H   0  0  0  0  0  0  0  0  0  0  0  0
    2.0836   -0.1892    0.0000 H   0  0  0  0  0  0  0  0  0  0  0  0
  1  2  1  0  0  0  0
  3  2  4  0  0  0  0
  4  3  4  0  0  0  0
  5  4  4  0  0  0  0
  6  5  4  0  0  0  0
  7  6  4  0  0  0  0
  7  8  1  0  0  0  0
  2  7  4  0  0  0  0
  1  9  1  0  0  0  0
  1 10  1  0  0  0  0
  3 11  1  0  0  0  0
  4 12  1  0  0  0  0
  5 13  1  0  0  0  0
  6 14  1  0  0  0  0
  8 15  1  0  0  0  0
  8 16  1  0  0  0  0
M  END
>  <id_input>
3887, 3888

>  <InChIKey>
GEYOCULIXLDCMW-UHFFFAOYSA-N

>  <substance_name>
benzene-1,2-diamine

>  <casrn>
95-54-5

>  <Molecular weight>
108.14112091064453

>  <guideline>
OECD Guideline 404 (Acute Dermal Irritation / Corrosion)

>  <species>
rabbit

>  <type_of_coverage>
semiocclusive

>  <max_duration(hrs)>
4.0

>  <vehicle>
physiological saline

>  <edema/ erythema score>
0.55

>  <reversibility>
0.0

>  <Outcome>
0

>  <StandardizerResult>
Remove Explicit Hydrogens (ID: RemoveExplicitH)
Dearomatize (ID: Dearomatize)
Clear Stereo (ID: ClearStereo)
Wedge Clean (ID: WedgeClean)
Mesomerize (ID: Mesomerize)
Tautomerize (ID: Tautomerize)
Aromatize (ID: Aromatize)
Add Explicit Hydrogens (ID: AddExplicitH)
Neutralize (ID: Neutralize)
Clean 2D (ID: Clean2D)


$$$$

  Mrv1812 02121911042D          

 32 31  0  0  0  0            999 V2000
    5.0069   -0.9305    0.0000 C   0  0  0  0  0  0  0  0  0  0  0  0
    4.1819   -0.9305    0.0000 C   0  0  0  0  0  0  0  0  0  0  0  0
    3.7694   -1.6450    0.0000 O   0  0  0  0  0  0  0  0  0  0  0  0
    3.7694   -0.2160    0.0000 N   0  0  0  0  0  0  0  0  0  0  0  0
    2.9444   -0.2160    0.0000 C   0  0  0  0  0  0  0  0  0  0  0  0
    2.5319    0.4985    0.0000 C   0  0  0  0  0  0  0  0  0  0  0  0
    1.7069    0.4985    0.0000 N   0  0  0  0  0  0  0  0  0  0  0  0
    1.2944    1.2129    0.0000 C   0  0  0  0  0  0  0  0  0  0  0  0
    0.4694    1.2129    0.0000 C   0  0  0  0  0  0  0  0  0  0  0  0
    1.7069    1.9274    0.0000 O   0  0  0  0  0  0  0  0  0  0  0  0
    1.2944   -0.2160    0.0000 C   0  0  0  0  0  0  0  0  0  0  0  0
    0.4694   -0.2160    0.0000 C   0  0  0  0  0  0  0  0  0  0  0  0
    1.7069   -0.9305    0.0000 O   0  0  0  0  0  0  0  0  0  0  0  0
    4.1819    0.4985    0.0000 C   0  0  0  0  0  0  0  0  0  0  0  0
    3.7694    1.2129    0.0000 C   0  0  0  0  0  0  0  0  0  0  0  0
    5.0069    0.4985    0.0000 O   0  0  0  0  0  0  0  0  0  0  0  0
    5.0069   -1.7555    0.0000 H   0  0  0  0  0  0  0  0  0  0  0  0
    5.8319   -0.9305    0.0000 H   0  0  0  0  0  0  0  0  0  0  0  0
    5.0069   -0.1055    0.0000 H   0  0  0  0  0  0  0  0  0  0  0  0
    2.2551   -0.6694    0.0000 H   0  0  0  0  0  0  0  0  0  0  0  0
    2.8964   -1.0396    0.0000 H   0  0  0  0  0  0  0  0  0  0  0  0
    3.2212    0.9518    0.0000 H   0  0  0  0  0  0  0  0  0  0  0  0
    2.5798    1.3221    0.0000 H   0  0  0  0  0  0  0  0  0  0  0  0
    0.4694    2.0379    0.0000 H   0  0  0  0  0  0  0  0  0  0  0  0
   -0.3556    1.2129    0.0000 H   0  0  0  0  0  0  0  0  0  0  0  0
    0.4694    0.3879    0.0000 H   0  0  0  0  0  0  0  0  0  0  0  0
   -0.2928    0.0997    0.0000 H   0  0  0  0  0  0  0  0  0  0  0  0
   -0.1140   -0.7994    0.0000 H   0  0  0  0  0  0  0  0  0  0  0  0
    0.7851   -0.9782    0.0000 H   0  0  0  0  0  0  0  0  0  0  0  0
    4.5893    1.3044    0.0000 H   0  0  0  0  0  0  0  0  0  0  0  0
    4.0142    2.0008    0.0000 H   0  0  0  0  0  0  0  0  0  0  0  0
    3.1458    1.7531    0.0000 H   0  0  0  0  0  0  0  0  0  0  0  0
  1  2  1  0  0  0  0
  2  3  2  0  0  0  0
  2  4  1  0  0  0  0
  4  5  1  0  0  0  0
  5  6  1  0  0  0  0
  6  7  1  0  0  0  0
  7  8  1  0  0  0  0
  8  9  1  0  0  0  0
  8 10  2  0  0  0  0
  7 11  1  0  0  0  0
 11 12  1  0  0  0  0
 11 13  2  0  0  0  0
  4 14  1  0  0  0  0
 14 15  1  0  0  0  0
 14 16  2  0  0  0  0
  1 17  1  0  0  0  0
  1 18  1  0  0  0  0
  1 19  1  0  0  0  0
  5 20  1  0  0  0  0
  5 21  1  0  0  0  0
  6 22  1  0  0  0  0
  6 23  1  0  0  0  0
  9 24  1  0  0  0  0
  9 25  1  0  0  0  0
  9 26  1  0  0  0  0
 12 27  1  0  0  0  0
 12 28  1  0  0  0  0
 12 29  1  0  0  0  0
 15 30  1  0  0  0  0
 15 31  1  0  0  0  0
 15 32  1  0  0  0  0
M  END
>  <id_input>
3474

>  <InChIKey>
BGRWYDHXPHLNKA-UHFFFAOYSA-N

>  <substance_name>
N-acetyl-N-[2-(N-acetylacetamido)ethyl]acetamide

>  <casrn>
10543-57-4

>  <Molecular weight>
228.2450408935547

>  <guideline>
EPA OPPTS 870.2500 (Acute Dermal Irritation)

>  <species>
rabbit

>  <type_of_coverage>
semiocclusive

>  <max_duration(hrs)>
24.0

>  <vehicle>
water

>  <edema/ erythema score>
0.125

>  <max_score>
4.0

>  <reversibility>
0.0

>  <Outcome>
0

>  <StandardizerResult>
Remove Explicit Hydrogens (ID: RemoveExplicitH)
Clear Stereo (ID: ClearStereo)
Wedge Clean (ID: WedgeClean)
Mesomerize (ID: Mesomerize)
Tautomerize (ID: Tautomerize)
Add Explicit Hydrogens (ID: AddExplicitH)
Neutralize (ID: Neutralize)
Clean 2D (ID: Clean2D)


$$$$

  Mrv1812 02121911042D          

 30 29  0  0  0  0            999 V2000
    3.5404   -1.3361    0.0000 C   0  0  0  0  0  0  0  0  0  0  0  0
    2.8259   -0.9236    0.0000 C   0  0  0  0  0  0  0  0  0  0  0  0
    2.8259   -0.0986    0.0000 O   0  0  0  0  0  0  0  0  0  0  0  0
    2.1115    0.3139    0.0000 Si  0  0  0  0  0  4  0  0  0  0  0  0
    1.3970    0.7264    0.0000 O   0  0  0  0  0  0  0  0  0  0  0  0
    1.3970    1.5514    0.0000 C   0  0  0  0  0  0  0  0  0  0  0  0
    0.6825    1.9639    0.0000 C   0  0  0  0  0  0  0  0  0  0  0  0
    2.5240    1.0284    0.0000 O   0  0  0  0  0  0  0  0  0  0  0  0
    2.1115    1.7429    0.0000 C   0  0  0  0  0  0  0  0  0  0  0  0
    2.5240    2.4573    0.0000 C   0  0  0  0  0  0  0  0  0  0  0  0
    1.6990   -0.4005    0.0000 C   0  0  0  0  0  0  0  0  0  0  0  0
    0.8740   -0.4005    0.0000 C   0  0  0  0  0  0  0  0  0  0  0  0
    3.1279   -2.0505    0.0000 H   0  0  0  0  0  0  0  0  0  0  0  0
    4.2549   -1.7486    0.0000 H   0  0  0  0  0  0  0  0  0  0  0  0
    3.9529   -0.6216    0.0000 H   0  0  0  0  0  0  0  0  0  0  0  0
    2.0023   -0.9715    0.0000 H   0  0  0  0  0  0  0  0  0  0  0  0
    2.3726   -1.6129    0.0000 H   0  0  0  0  0  0  0  0  0  0  0  0
    1.5047    2.3694    0.0000 H   0  0  0  0  0  0  0  0  0  0  0  0
    2.0515    1.0492    0.0000 H   0  0  0  0  0  0  0  0  0  0  0  0
    0.5083    2.7703    0.0000 H   0  0  0  0  0  0  0  0  0  0  0  0
   -0.1420    1.9909    0.0000 H   0  0  0  0  0  0  0  0  0  0  0  0
    0.4560    1.1706    0.0000 H   0  0  0  0  0  0  0  0  0  0  0  0
    2.8867    1.4607    0.0000 H   0  0  0  0  0  0  0  0  0  0  0  0
    2.8867    2.0250    0.0000 H   0  0  0  0  0  0  0  0  0  0  0  0
    3.2862    2.7731    0.0000 H   0  0  0  0  0  0  0  0  0  0  0  0
    2.4520    3.2792    0.0000 H   0  0  0  0  0  0  0  0  0  0  0  0
    1.7185    2.6359    0.0000 H   0  0  0  0  0  0  0  0  0  0  0  0
    2.5238   -0.4151    0.0000 H   0  0  0  0  0  0  0  0  0  0  0  0
    0.4615    0.3139    0.0000 H   0  0  0  0  0  0  0  0  0  0  0  0
    0.4615   -1.1150    0.0000 H   0  0  0  0  0  0  0  0  0  0  0  0
  1  2  1  0  0  0  0
  2  3  1  0  0  0  0
  3  4  1  0  0  0  0
  4  5  1  0  0  0  0
  5  6  1  0  0  0  0
  6  7  1  0  0  0  0
  4  8  1  0  0  0  0
  8  9  1  0  0  0  0
  9 10  1  0  0  0  0
  4 11  1  0  0  0  0
 11 12  2  0  0  0  0
  1 13  1  0  0  0  0
  1 14  1  0  0  0  0
  1 15  1  0  0  0  0
  2 16  1  0  0  0  0
  2 17  1  0  0  0  0
  6 18  1  0  0  0  0
  6 19  1  0  0  0  0
  7 20  1  0  0  0  0
  7 21  1  0  0  0  0
  7 22  1  0  0  0  0
  9 23  1  0  0  0  0
  9 24  1  0  0  0  0
 10 25  1  0  0  0  0
 10 26  1  0  0  0  0
 10 27  1  0  0  0  0
 11 28  1  4  0  0  0
 12 29  1  0  0  0  0
 12 30  1  0  0  0  0
M  END
>  <id_input>
4328

>  <InChIKey>
FWDBOZPQNFPOLF-UHFFFAOYSA-N

>  <substance_name>
ethenyltriethoxysilane

>  <casrn>
78-08-0

>  <Molecular weight>
190.31222534179688

>  <guideline>
OECD Guideline 404 (Acute Dermal Irritation / Corrosion)

>  <species>
rabbit

>  <type_of_coverage>
semiocclusive

>  <max_duration(hrs)>
4.0

>  <vehicle>
unchanged (no vehicle)

>  <edema/ erythema score>
0.9

>  <max_score>
4.0

>  <reversibility>
0.0

>  <Outcome>
0

>  <StandardizerResult>
Remove Explicit Hydrogens (ID: RemoveExplicitH)
Clear Stereo (ID: ClearStereo)
Wedge Clean (ID: WedgeClean)
Mesomerize (ID: Mesomerize)
Tautomerize (ID: Tautomerize)
Add Explicit Hydrogens (ID: AddExplicitH)
Neutralize (ID: Neutralize)
Clean 2D (ID: Clean2D)


$$$$

  Mrv1812 02121911042D          

 18 18  0  0  0  0            999 V2000
    1.3819    1.0982    0.0000 C   0  0  0  0  0  0  0  0  0  0  0  0
    0.6674    0.6857    0.0000 C   0  0  0  0  0  0  0  0  0  0  0  0
   -0.0470    1.0982    0.0000 C   0  0  0  0  0  0  0  0  0  0  0  0
   -0.7615    0.6857    0.0000 C   0  0  0  0  0  0  0  0  0  0  0  0
   -0.7615   -0.1393    0.0000 C   0  0  0  0  0  0  0  0  0  0  0  0
   -1.4760   -0.5518    0.0000 Cl  0  0  0  0  0  0  0  0  0  0  0  0
   -0.0470   -0.5518    0.0000 C   0  0  0  0  0  0  0  0  0  0  0  0
    0.6674   -0.1393    0.0000 C   0  0  0  0  0  0  0  0  0  0  0  0
    1.3819   -0.5518    0.0000 C   0  0  0  0  0  0  0  0  0  0  0  0
    1.7944    0.3837    0.0000 H   0  0  0  0  0  0  0  0  0  0  0  0
    2.0964    1.5107    0.0000 H   0  0  0  0  0  0  0  0  0  0  0  0
    0.9694    1.8126    0.0000 H   0  0  0  0  0  0  0  0  0  0  0  0
   -0.0470    1.9232    0.0000 H   0  0  0  0  0  0  0  0  0  0  0  0
   -1.4760    1.0982    0.0000 H   0  0  0  0  0  0  0  0  0  0  0  0
   -0.0470   -1.3768    0.0000 H   0  0  0  0  0  0  0  0  0  0  0  0
    0.9694   -1.2663    0.0000 H   0  0  0  0  0  0  0  0  0  0  0  0
    2.0964   -0.9643    0.0000 H   0  0  0  0  0  0  0  0  0  0  0  0
    1.7944    0.1626    0.0000 H   0  0  0  0  0  0  0  0  0  0  0  0
  1  2  1  0  0  0  0
  3  2  4  0  0  0  0
  4  3  4  0  0  0  0
  5  4  4  0  0  0  0
  5  6  1  0  0  0  0
  7  5  4  0  0  0  0
  8  7  4  0  0  0  0
  8  9  1  0  0  0  0
  2  8  4  0  0  0  0
  1 10  1  0  0  0  0
  1 11  1  0  0  0  0
  1 12  1  0  0  0  0
  3 13  1  0  0  0  0
  4 14  1  0  0  0  0
  7 15  1  0  0  0  0
  9 16  1  0  0  0  0
  9 17  1  0  0  0  0
  9 18  1  0  0  0  0
M  END
>  <id_input>
2883

>  <InChIKey>
HNQLMBJUMVLFCF-UHFFFAOYSA-N

>  <substance_name>
4-chloro-1,2-dimethylbenzene

>  <casrn>
615-60-1

>  <Molecular weight>
140.6100616455078

>  <guideline>
OECD Guideline 404 (Acute Dermal Irritation / Corrosion)

>  <species>
rabbit

>  <type_of_coverage>
semiocclusive

>  <max_duration(hrs)>
4.0

>  <vehicle>
unchanged (no vehicle)

>  <edema/ erythema score>
1.0825

>  <max_score>
4.0

>  <reversibility>
0.0

>  <Outcome>
0

>  <StandardizerResult>
Remove Explicit Hydrogens (ID: RemoveExplicitH)
Dearomatize (ID: Dearomatize)
Clear Stereo (ID: ClearStereo)
Wedge Clean (ID: WedgeClean)
Mesomerize (ID: Mesomerize)
Tautomerize (ID: Tautomerize)
Aromatize (ID: Aromatize)
Add Explicit Hydrogens (ID: AddExplicitH)
Neutralize (ID: Neutralize)
Clean 2D (ID: Clean2D)


$$$$

  Mrv1812 02121911042D          

 25 24  0  0  0  0            999 V2000
    1.2103   -1.0903    0.0000 C   0  0  0  0  0  0  0  0  0  0  0  0
    1.2103   -0.2653    0.0000 C   0  0  0  0  0  0  0  0  0  0  0  0
    0.4958    0.1472    0.0000 O   0  0  0  0  0  0  0  0  0  0  0  0
    1.9247    0.1472    0.0000 C   0  0  0  0  0  0  0  0  0  0  0  0
    1.9247    0.9722    0.0000 C   0  0  0  0  0  0  0  0  0  0  0  0
    1.2103    1.3847    0.0000 O   0  0  0  0  0  0  0  0  0  0  0  0
    2.6392    1.3847    0.0000 O   0  0  0  0  0  0  0  0  0  0  0  0
    2.6392    2.2097    0.0000 C   0  0  0  0  0  0  0  0  0  0  0  0
    2.6392    3.0347    0.0000 C   0  0  0  0  0  0  0  0  0  0  0  0
    3.4642    2.2097    0.0000 C   0  0  0  0  0  0  0  0  0  0  0  0
    1.8142    2.2097    0.0000 C   0  0  0  0  0  0  0  0  0  0  0  0
    0.3853   -1.0903    0.0000 H   0  0  0  0  0  0  0  0  0  0  0  0
    1.2103   -1.9153    0.0000 H   0  0  0  0  0  0  0  0  0  0  0  0
    2.0353   -1.0903    0.0000 H   0  0  0  0  0  0  0  0  0  0  0  0
    2.3781   -0.5420    0.0000 H   0  0  0  0  0  0  0  0  0  0  0  0
    2.7483    0.0993    0.0000 H   0  0  0  0  0  0  0  0  0  0  0  0
    3.4642    3.0347    0.0000 H   0  0  0  0  0  0  0  0  0  0  0  0
    2.6392    3.8597    0.0000 H   0  0  0  0  0  0  0  0  0  0  0  0
    1.8142    3.0347    0.0000 H   0  0  0  0  0  0  0  0  0  0  0  0
    3.1485    1.4475    0.0000 H   0  0  0  0  0  0  0  0  0  0  0  0
    4.0476    1.6264    0.0000 H   0  0  0  0  0  0  0  0  0  0  0  0
    4.2264    2.5255    0.0000 H   0  0  0  0  0  0  0  0  0  0  0  0
    1.0520    2.5255    0.0000 H   0  0  0  0  0  0  0  0  0  0  0  0
    1.2308    1.6264    0.0000 H   0  0  0  0  0  0  0  0  0  0  0  0
    2.1299    1.4475    0.0000 H   0  0  0  0  0  0  0  0  0  0  0  0
  1  2  1  0  0  0  0
  2  3  2  0  0  0  0
  2  4  1  0  0  0  0
  4  5  1  0  0  0  0
  5  6  2  0  0  0  0
  5  7  1  0  0  0  0
  7  8  1  0  0  0  0
  8  9  1  0  0  0  0
  8 10  1  0  0  0  0
  8 11  1  0  0  0  0
  1 12  1  0  0  0  0
  1 13  1  0  0  0  0
  1 14  1  0  0  0  0
  4 15  1  0  0  0  0
  4 16  1  0  0  0  0
  9 17  1  0  0  0  0
  9 18  1  0  0  0  0
  9 19  1  0  0  0  0
 10 20  1  0  0  0  0
 10 21  1  0  0  0  0
 10 22  1  0  0  0  0
 11 23  1  0  0  0  0
 11 24  1  0  0  0  0
 11 25  1  0  0  0  0
M  END
>  <id_input>
4998

>  <InChIKey>
JKUYRAMKJLMYLO-UHFFFAOYSA-N

>  <substance_name>
tert-butyl 3-oxobutanoate

>  <casrn>
1694-31-1

>  <Molecular weight>
158.19496154785156

>  <guideline>
OECD Guideline 404 (Acute Dermal Irritation / Corrosion)

>  <species>
rabbit

>  <type_of_coverage>
semiocclusive

>  <max_duration(hrs)>
4.0

>  <vehicle>
unchanged (no vehicle)

>  <edema/ erythema score>
0.566666666666666

>  <max_score>
1.0

>  <reversibility>
0.0

>  <Outcome>
0

>  <StandardizerResult>
Remove Explicit Hydrogens (ID: RemoveExplicitH)
Clear Stereo (ID: ClearStereo)
Wedge Clean (ID: WedgeClean)
Mesomerize (ID: Mesomerize)
Tautomerize (ID: Tautomerize)
Add Explicit Hydrogens (ID: AddExplicitH)
Neutralize (ID: Neutralize)
Clean 2D (ID: Clean2D)


$$$$

  Mrv1812 02121911042D          

 12 12  0  0  0  0            999 V2000
    1.5060    0.4906    0.0000 O   0  0  0  0  0  0  0  0  0  0  0  0
    0.7214    0.2357    0.0000 C   0  0  0  0  0  0  0  0  0  0  0  0
    0.0539    0.7206    0.0000 C   0  0  0  0  0  0  0  0  0  0  0  0
   -0.6135    0.2357    0.0000 C   0  0  0  0  0  0  0  0  0  0  0  0
   -0.3586   -0.5489    0.0000 C   0  0  0  0  0  0  0  0  0  0  0  0
   -0.8435   -1.2164    0.0000 O   0  0  0  0  0  0  0  0  0  0  0  0
    0.4664   -0.5489    0.0000 N   0  0  0  0  0  0  0  0  0  0  0  0
    0.4413    1.4490    0.0000 H   0  0  0  0  0  0  0  0  0  0  0  0
   -0.3334    1.4490    0.0000 H   0  0  0  0  0  0  0  0  0  0  0  0
   -1.1866    0.8291    0.0000 H   0  0  0  0  0  0  0  0  0  0  0  0
   -1.4260    0.0924    0.0000 H   0  0  0  0  0  0  0  0  0  0  0  0
    0.9514   -1.2164    0.0000 H   0  0  0  0  0  0  0  0  0  0  0  0
  1  2  2  0  0  0  0
  3  2  1  0  0  0  0
  4  3  1  0  0  0  0
  5  4  1  0  0  0  0
  5  6  2  0  0  0  0
  7  5  1  0  0  0  0
  2  7  1  0  0  0  0
  3  8  1  0  0  0  0
  3  9  1  0  0  0  0
  4 10  1  0  0  0  0
  4 11  1  0  0  0  0
  7 12  1  0  0  0  0
M  END
>  <id_input>
4854

>  <InChIKey>
KZNICNPSHKQLFF-UHFFFAOYSA-N

>  <substance_name>
pyrrolidine-2,5-dione

>  <casrn>
123-56-8

>  <Molecular weight>
99.08799743652344

>  <guideline>
OECD Guideline 404 (Acute Dermal Irritation / Corrosion)

>  <species>
rabbit

>  <type_of_coverage>
semiocclusive

>  <max_duration(hrs)>
4.0

>  <vehicle>
water

>  <edema/ erythema score>
0.0

>  <max_score>
0.0

>  <reversibility>
0.0

>  <Outcome>
0

>  <StandardizerResult>
Remove Explicit Hydrogens (ID: RemoveExplicitH)
Clear Stereo (ID: ClearStereo)
Wedge Clean (ID: WedgeClean)
Mesomerize (ID: Mesomerize)
Tautomerize (ID: Tautomerize)
Add Explicit Hydrogens (ID: AddExplicitH)
Neutralize (ID: Neutralize)
Clean 2D (ID: Clean2D)


$$$$

  Mrv1812 02121911042D          

 23 22  0  0  0  0            999 V2000
    5.5916    0.3038    0.0000 C   0  0  0  0  0  0  0  0  0  0  0  0
    4.8772    0.7163    0.0000 O   0  0  0  0  0  0  0  0  0  0  0  0
    4.1627    0.3038    0.0000 C   0  0  0  0  0  0  0  0  0  0  0  0
    4.1627   -0.5212    0.0000 O   0  0  0  0  0  0  0  0  0  0  0  0
    3.4482    0.7163    0.0000 C   0  0  0  0  0  0  0  0  0  0  0  0
    2.7338    0.3038    0.0000 S   0  0  0  0  0  0  0  0  0  0  0  0
    2.0193    0.7163    0.0000 P   0  0  0  0  0  0  0  0  0  0  0  0
    2.4318    1.4307    0.0000 S   0  0  0  0  0  0  0  0  0  0  0  0
    1.3048    1.1288    0.0000 O   0  0  0  0  0  0  0  0  0  0  0  0
    0.5903    0.7163    0.0000 C   0  0  0  0  0  0  0  0  0  0  0  0
    1.6068    0.0018    0.0000 O   0  0  0  0  0  0  0  0  0  0  0  0
    0.7818    0.0018    0.0000 C   0  0  0  0  0  0  0  0  0  0  0  0
    5.1791   -0.4107    0.0000 H   0  0  0  0  0  0  0  0  0  0  0  0
    6.3061   -0.1087    0.0000 H   0  0  0  0  0  0  0  0  0  0  0  0
    6.0041    1.0182    0.0000 H   0  0  0  0  0  0  0  0  0  0  0  0
    3.8185    1.4535    0.0000 H   0  0  0  0  0  0  0  0  0  0  0  0
    3.0780    1.4535    0.0000 H   0  0  0  0  0  0  0  0  0  0  0  0
    0.5364    1.5395    0.0000 H   0  0  0  0  0  0  0  0  0  0  0  0
   -0.1719    1.0320    0.0000 H   0  0  0  0  0  0  0  0  0  0  0  0
   -0.0299    0.1723    0.0000 H   0  0  0  0  0  0  0  0  0  0  0  0
    0.4040   -0.7317    0.0000 H   0  0  0  0  0  0  0  0  0  0  0  0
    1.0007   -0.7936    0.0000 H   0  0  0  0  0  0  0  0  0  0  0  0
    1.2840    0.6563    0.0000 H   0  0  0  0  0  0  0  0  0  0  0  0
  1  2  1  0  0  0  0
  2  3  1  0  0  0  0
  3  4  2  0  0  0  0
  3  5  1  0  0  0  0
  5  6  1  0  0  0  0
  6  7  1  0  0  0  0
  7  8  2  0  0  0  0
  7  9  1  0  0  0  0
  9 10  1  0  0  0  0
  7 11  1  0  0  0  0
 11 12  1  0  0  0  0
  1 13  1  0  0  0  0
  1 14  1  0  0  0  0
  1 15  1  0  0  0  0
  5 16  1  0  0  0  0
  5 17  1  0  0  0  0
 10 18  1  0  0  0  0
 10 19  1  0  0  0  0
 10 20  1  0  0  0  0
 12 21  1  0  0  0  0
 12 22  1  0  0  0  0
 12 23  1  0  0  0  0
M  END
>  <id_input>
4556

>  <InChIKey>
PLZVCZLWZIJPPO-UHFFFAOYSA-N

>  <substance_name>
methyl [(dimethoxyphosphorothioyl)sulfanyl]acetate

>  <casrn>
757-86-8

>  <Molecular weight>
230.24220275878906

>  <guideline>
OECD Guideline 404 (Acute Dermal Irritation / Corrosion)

>  <species>
rabbit

>  <type_of_coverage>
occlusive

>  <max_duration(hrs)>
4.0

>  <vehicle>
unchanged (no vehicle)

>  <edema/ erythema score>
0.5

>  <max_score>
1.0

>  <reversibility>
0.0

>  <Outcome>
0

>  <StandardizerResult>
Remove Explicit Hydrogens (ID: RemoveExplicitH)
Clear Stereo (ID: ClearStereo)
Wedge Clean (ID: WedgeClean)
Mesomerize (ID: Mesomerize)
Tautomerize (ID: Tautomerize)
Add Explicit Hydrogens (ID: AddExplicitH)
Neutralize (ID: Neutralize)
Clean 2D (ID: Clean2D)


$$$$

  Mrv1812 02121911042D          

 38 38  0  0  0  0            999 V2000
   -2.2396   -0.8405    0.0000 C   0  0  0  0  0  0  0  0  0  0  0  0
   -1.5251   -0.4280    0.0000 C   0  0  0  0  0  0  0  0  0  0  0  0
   -0.8106   -0.8405    0.0000 C   0  0  0  0  0  0  0  0  0  0  0  0
   -0.0962   -0.4280    0.0000 C   0  0  0  0  0  0  0  0  0  0  0  0
    0.6183   -0.8405    0.0000 C   0  0  0  0  0  0  0  0  0  0  0  0
    1.3328   -0.4280    0.0000 C   0  0  0  0  0  0  0  0  0  0  0  0
    0.8479    0.2395    0.0000 C   0  0  0  0  0  0  0  0  0  0  0  0
    1.6683   -1.1816    0.0000 C   0  0  0  0  0  0  0  0  0  0  0  0
    2.4888   -1.0954    0.0000 C   0  0  0  0  0  0  0  0  0  0  0  0
    2.6603   -0.2884    0.0000 C   0  0  0  0  0  0  0  0  0  0  0  0
    3.4450   -0.5434    0.0000 C   0  0  0  0  0  0  0  0  0  0  0  0
    2.9959    0.4653    0.0000 C   0  0  0  0  0  0  0  0  0  0  0  0
    1.9459    0.1241    0.0000 C   0  0  0  0  0  0  0  0  0  0  0  0
    1.8596    0.9446    0.0000 O   0  0  0  0  0  0  0  0  0  0  0  0
   -2.6521   -0.1260    0.0000 H   0  0  0  0  0  0  0  0  0  0  0  0
   -2.9540   -1.2530    0.0000 H   0  0  0  0  0  0  0  0  0  0  0  0
   -1.8271   -1.5549    0.0000 H   0  0  0  0  0  0  0  0  0  0  0  0
   -1.1548    0.3093    0.0000 H   0  0  0  0  0  0  0  0  0  0  0  0
   -1.8954    0.3093    0.0000 H   0  0  0  0  0  0  0  0  0  0  0  0
   -1.1809   -1.5777    0.0000 H   0  0  0  0  0  0  0  0  0  0  0  0
   -0.4404   -1.5777    0.0000 H   0  0  0  0  0  0  0  0  0  0  0  0
    0.2741    0.3093    0.0000 H   0  0  0  0  0  0  0  0  0  0  0  0
   -0.4664    0.3093    0.0000 H   0  0  0  0  0  0  0  0  0  0  0  0
    0.2480   -1.5777    0.0000 H   0  0  0  0  0  0  0  0  0  0  0  0
    0.9886   -1.5777    0.0000 H   0  0  0  0  0  0  0  0  0  0  0  0
    1.5294    0.7044    0.0000 H   0  0  0  0  0  0  0  0  0  0  0  0
    0.9232    1.0610    0.0000 H   0  0  0  0  0  0  0  0  0  0  0  0
    0.4295   -0.4716    0.0000 H   0  0  0  0  0  0  0  0  0  0  0  0
    1.5557   -1.9989    0.0000 H   0  0  0  0  0  0  0  0  0  0  0  0
    2.2422   -1.7743    0.0000 H   0  0  0  0  0  0  0  0  0  0  0  0
    3.1489   -1.5903    0.0000 H   0  0  0  0  0  0  0  0  0  0  0  0
    3.3108   -1.0249    0.0000 H   0  0  0  0  0  0  0  0  0  0  0  0
    4.0890   -1.0589    0.0000 H   0  0  0  0  0  0  0  0  0  0  0  0
    4.1719   -0.1533    0.0000 H   0  0  0  0  0  0  0  0  0  0  0  0
    3.3715    0.2784    0.0000 H   0  0  0  0  0  0  0  0  0  0  0  0
    3.6123    1.0136    0.0000 H   0  0  0  0  0  0  0  0  0  0  0  0
    2.7168    1.2416    0.0000 H   0  0  0  0  0  0  0  0  0  0  0  0
    2.1715    0.4957    0.0000 H   0  0  0  0  0  0  0  0  0  0  0  0
  1  2  1  0  0  0  0
  2  3  1  0  0  0  0
  3  4  1  0  0  0  0
  4  5  1  0  0  0  0
  5  6  1  0  0  0  0
  6  7  1  0  0  0  0
  8  6  1  0  0  0  0
  9  8  1  0  0  0  0
 10  9  1  0  0  0  0
 10 11  1  0  0  0  0
 10 12  1  0  0  0  0
 13 10  1  0  0  0  0
 13 14  2  0  0  0  0
  6 13  1  0  0  0  0
  1 15  1  0  0  0  0
  1 16  1  0  0  0  0
  1 17  1  0  0  0  0
  2 18  1  0  0  0  0
  2 19  1  0  0  0  0
  3 20  1  0  0  0  0
  3 21  1  0  0  0  0
  4 22  1  0  0  0  0
  4 23  1  0  0  0  0
  5 24  1  0  0  0  0
  5 25  1  0  0  0  0
  7 26  1  0  0  0  0
  7 27  1  0  0  0  0
  7 28  1  0  0  0  0
  8 29  1  0  0  0  0
  8 30  1  0  0  0  0
  9 31  1  0  0  0  0
  9 32  1  0  0  0  0
 11 33  1  0  0  0  0
 11 34  1  0  0  0  0
 11 35  1  0  0  0  0
 12 36  1  0  0  0  0
 12 37  1  0  0  0  0
 12 38  1  0  0  0  0
M  END
>  <id_input>
2082

>  <InChIKey>
PUKWIVZFEZFVAT-UHFFFAOYSA-N

>  <substance_name>
2,2,5-trimethyl-5-pentylcyclopentanone

>  <casrn>
65443-14-3

>  <Molecular weight>
196.32907104492188

>  <guideline>
OECD Guideline 404 (Acute Dermal Irritation / Corrosion)

>  <species>
rabbit

>  <type_of_coverage>
semiocclusive

>  <max_duration(hrs)>
4.0

>  <vehicle>
unchanged (no vehicle)

>  <edema/ erythema score>
1.33333333333333

>  <max_score>
4.0

>  <reversibility>
0.0

>  <Outcome>
0

>  <StandardizerResult>
Remove Explicit Hydrogens (ID: RemoveExplicitH)
Clear Stereo (ID: ClearStereo)
Wedge Clean (ID: WedgeClean)
Mesomerize (ID: Mesomerize)
Tautomerize (ID: Tautomerize)
Add Explicit Hydrogens (ID: AddExplicitH)
Neutralize (ID: Neutralize)
Clean 2D (ID: Clean2D)


$$$$

  Mrv1812 02121911042D          

  9  8  0  0  0  0            999 V2000
   -0.3835   -0.4905    0.0000 O   0  0  0  0  0  0  0  0  0  0  0  0
    0.3310   -0.0780    0.0000 C   0  0  0  0  0  0  0  0  0  0  0  0
    0.3310    0.7470    0.0000 C   0  0  0  0  0  0  0  0  0  0  0  0
    0.3310    1.5720    0.0000 F   0  0  0  0  0  0  0  0  0  0  0  0
    1.1560    0.7470    0.0000 F   0  0  0  0  0  0  0  0  0  0  0  0
   -0.4940    0.7470    0.0000 F   0  0  0  0  0  0  0  0  0  0  0  0
   -1.0979   -0.0780    0.0000 H   0  0  0  0  0  0  0  0  0  0  0  0
    0.7843   -0.7673    0.0000 H   0  0  0  0  0  0  0  0  0  0  0  0
    1.1546   -0.1260    0.0000 H   0  0  0  0  0  0  0  0  0  0  0  0
  1  2  1  0  0  0  0
  2  3  1  0  0  0  0
  3  4  1  0  0  0  0
  3  5  1  0  0  0  0
  3  6  1  0  0  0  0
  1  7  1  0  0  0  0
  2  8  1  0  0  0  0
  2  9  1  0  0  0  0
M  END
>  <id_input>
2047

>  <InChIKey>
RHQDFWAXVIIEBN-UHFFFAOYSA-N

>  <substance_name>
2,2,2-trifluoroethan-1-ol

>  <casrn>
75-89-8

>  <Molecular weight>
100.03983306884766

>  <guideline>
other: OECD Guideline 404 (17 July 1992)

>  <species>
rabbit

>  <type_of_coverage>
semiocclusive

>  <max_duration(hrs)>
4.0

>  <vehicle>
unchanged (no vehicle)

>  <edema/ erythema score>
0.766666666666666

>  <max_score>
4.0

>  <reversibility>
0.0

>  <Outcome>
0

>  <StandardizerResult>
Remove Explicit Hydrogens (ID: RemoveExplicitH)
Clear Stereo (ID: ClearStereo)
Wedge Clean (ID: WedgeClean)
Mesomerize (ID: Mesomerize)
Tautomerize (ID: Tautomerize)
Add Explicit Hydrogens (ID: AddExplicitH)
Neutralize (ID: Neutralize)
Clean 2D (ID: Clean2D)


$$$$

  Mrv1812 02121911042D          

 40 42  0  0  0  0            999 V2000
   -0.3360    5.1162    0.0000 C   0  0  0  0  0  0  0  0  0  0  0  0
   -1.0504    5.5287    0.0000 C   0  0  0  0  0  0  0  0  0  0  0  0
   -1.7649    5.1162    0.0000 C   0  0  0  0  0  0  0  0  0  0  0  0
   -1.7649    4.2912    0.0000 C   0  0  0  0  0  0  0  0  0  0  0  0
   -1.0504    3.8787    0.0000 C   0  0  0  0  0  0  0  0  0  0  0  0
   -0.3360    4.2912    0.0000 C   0  0  0  0  0  0  0  0  0  0  0  0
   -1.0504    3.0537    0.0000 C   0  0  0  0  0  0  0  0  0  0  0  0
   -1.7649    2.6412    0.0000 C   0  0  0  0  0  0  0  0  0  0  0  0
   -1.7649    1.8162    0.0000 C   0  0  0  0  0  0  0  0  0  0  0  0
   -1.0504    1.4037    0.0000 C   0  0  0  0  0  0  0  0  0  0  0  0
   -0.3360    1.8162    0.0000 C   0  0  0  0  0  0  0  0  0  0  0  0
   -0.3360    2.6412    0.0000 C   0  0  0  0  0  0  0  0  0  0  0  0
   -1.0504    0.5787    0.0000 C   0  0  0  0  0  0  0  0  0  0  0  0
   -1.7649    0.1662    0.0000 C   0  0  0  0  0  0  0  0  0  0  0  0
   -1.7649   -0.6588    0.0000 C   0  0  0  0  0  0  0  0  0  0  0  0
   -1.0504   -1.0713    0.0000 C   0  0  0  0  0  0  0  0  0  0  0  0
   -0.3360   -0.6588    0.0000 C   0  0  0  0  0  0  0  0  0  0  0  0
   -0.3360    0.1662    0.0000 C   0  0  0  0  0  0  0  0  0  0  0  0
    0.4877    5.1642    0.0000 H   0  0  0  0  0  0  0  0  0  0  0  0
    0.1174    5.8055    0.0000 H   0  0  0  0  0  0  0  0  0  0  0  0
   -0.6802    6.2660    0.0000 H   0  0  0  0  0  0  0  0  0  0  0  0
   -1.4207    6.2660    0.0000 H   0  0  0  0  0  0  0  0  0  0  0  0
   -2.4794    5.5287    0.0000 H   0  0  0  0  0  0  0  0  0  0  0  0
   -2.4794    3.8787    0.0000 H   0  0  0  0  0  0  0  0  0  0  0  0
   -1.7649    3.4662    0.0000 H   0  0  0  0  0  0  0  0  0  0  0  0
    0.1174    3.6020    0.0000 H   0  0  0  0  0  0  0  0  0  0  0  0
    0.4877    4.2433    0.0000 H   0  0  0  0  0  0  0  0  0  0  0  0
   -2.5899    2.6412    0.0000 H   0  0  0  0  0  0  0  0  0  0  0  0
   -2.4794    1.4037    0.0000 H   0  0  0  0  0  0  0  0  0  0  0  0
    0.3785    1.4037    0.0000 H   0  0  0  0  0  0  0  0  0  0  0  0
    0.3785    3.0537    0.0000 H   0  0  0  0  0  0  0  0  0  0  0  0
   -1.7649    0.9912    0.0000 H   0  0  0  0  0  0  0  0  0  0  0  0
   -2.5401    0.4484    0.0000 H   0  0  0  0  0  0  0  0  0  0  0  0
   -2.5401   -0.1159    0.0000 H   0  0  0  0  0  0  0  0  0  0  0  0
   -2.4242   -1.1546    0.0000 H   0  0  0  0  0  0  0  0  0  0  0  0
   -1.9356   -1.4659    0.0000 H   0  0  0  0  0  0  0  0  0  0  0  0
   -0.6757   -1.8062    0.0000 H   0  0  0  0  0  0  0  0  0  0  0  0
    0.3785   -1.0713    0.0000 H   0  0  0  0  0  0  0  0  0  0  0  0
    0.4877    0.2142    0.0000 H   0  0  0  0  0  0  0  0  0  0  0  0
    0.1174    0.8555    0.0000 H   0  0  0  0  0  0  0  0  0  0  0  0
  2  1  1  0  0  0  0
  3  2  1  0  0  0  0
  4  3  2  0  0  0  0
  5  4  1  0  0  0  0
  6  5  1  0  0  0  0
  5  7  1  0  0  0  0
  8  7  4  0  0  0  0
  9  8  4  0  0  0  0
 10  9  4  0  0  0  0
 11 10  4  0  0  0  0
 12 11  4  0  0  0  0
 10 13  1  0  0  0  0
 14 13  1  0  0  0  0
 15 14  1  0  0  0  0
 16 15  1  0  0  0  0
 17 16  2  0  0  0  0
 18 17  1  0  0  0  0
  1  6  1  0  0  0  0
  7 12  4  0  0  0  0
 13 18  1  0  0  0  0
  1 19  1  0  0  0  0
  1 20  1  0  0  0  0
  2 21  1  0  0  0  0
  2 22  1  0  0  0  0
  3 23  1  0  0  0  0
  4 24  1  0  0  0  0
  5 25  1  0  0  0  0
  6 26  1  0  0  0  0
  6 27  1  0  0  0  0
  8 28  1  0  0  0  0
  9 29  1  0  0  0  0
 11 30  1  0  0  0  0
 12 31  1  0  0  0  0
 13 32  1  0  0  0  0
 14 33  1  0  0  0  0
 14 34  1  0  0  0  0
 15 35  1  0  0  0  0
 15 36  1  0  0  0  0
 16 37  1  0  0  0  0
 17 38  1  0  0  0  0
 18 39  1  0  0  0  0
 18 40  1  0  0  0  0
M  END
>  <id_input>
3796

>  <InChIKey>
TVBYFUMVFJKKNJ-UHFFFAOYSA-N

>  <substance_name>
Terphenyl, hydrogenated

>  <casrn>
61788-32-7

>  <Molecular weight>
238.36727905273438

>  <species>
rabbit

>  <type_of_coverage>
occlusive

>  <max_duration(hrs)>
24.0

>  <vehicle>
unchanged (no vehicle)

>  <edema/ erythema score>
0.1

>  <max_score>
4.0

>  <reversibility>
0.0

>  <Outcome>
0

>  <StandardizerResult>
Remove Explicit Hydrogens (ID: RemoveExplicitH)
Dearomatize (ID: Dearomatize)
Clear Stereo (ID: ClearStereo)
Wedge Clean (ID: WedgeClean)
Mesomerize (ID: Mesomerize)
Tautomerize (ID: Tautomerize)
Aromatize (ID: Aromatize)
Add Explicit Hydrogens (ID: AddExplicitH)
Neutralize (ID: Neutralize)
Clean 2D (ID: Clean2D)


$$$$

  Mrv1812 02121911042D          

 14 14  0  0  0  0            999 V2000
    1.3895    0.9723    0.0000 F   0  0  0  0  0  0  0  0  0  0  0  0
    0.6750    0.5598    0.0000 C   0  0  0  0  0  0  0  0  0  0  0  0
   -0.0395    0.9723    0.0000 C   0  0  0  0  0  0  0  0  0  0  0  0
   -0.7540    0.5598    0.0000 C   0  0  0  0  0  0  0  0  0  0  0  0
   -0.7540   -0.2652    0.0000 C   0  0  0  0  0  0  0  0  0  0  0  0
   -1.4684   -0.6777    0.0000 C   0  0  0  0  0  0  0  0  0  0  0  0
   -1.4684   -1.5027    0.0000 O   0  0  0  0  0  0  0  0  0  0  0  0
   -0.0395   -0.6777    0.0000 C   0  0  0  0  0  0  0  0  0  0  0  0
    0.6750   -0.2652    0.0000 C   0  0  0  0  0  0  0  0  0  0  0  0
   -0.0395    1.7973    0.0000 H   0  0  0  0  0  0  0  0  0  0  0  0
   -1.4684    0.9723    0.0000 H   0  0  0  0  0  0  0  0  0  0  0  0
   -2.1829   -0.2652    0.0000 H   0  0  0  0  0  0  0  0  0  0  0  0
   -0.0395   -1.5027    0.0000 H   0  0  0  0  0  0  0  0  0  0  0  0
    1.3895   -0.6777    0.0000 H   0  0  0  0  0  0  0  0  0  0  0  0
  1  2  1  0  0  0  0
  3  2  4  0  0  0  0
  4  3  4  0  0  0  0
  5  4  4  0  0  0  0
  5  6  1  0  0  0  0
  6  7  2  0  0  0  0
  8  5  4  0  0  0  0
  9  8  4  0  0  0  0
  2  9  4  0  0  0  0
  3 10  1  0  0  0  0
  4 11  1  0  0  0  0
  6 12  1  0  0  0  0
  8 13  1  0  0  0  0
  9 14  1  0  0  0  0
M  END
>  <id_input>
2898

>  <InChIKey>
UOQXIWFBQSVDPP-UHFFFAOYSA-N

>  <substance_name>
4-fluorobenzaldehyde

>  <casrn>
459-57-4

>  <Molecular weight>
124.1124038696289

>  <guideline>
OECD Guideline 404 (Acute Dermal Irritation / Corrosion)

>  <species>
rabbit

>  <type_of_coverage>
semiocclusive

>  <max_duration(hrs)>
4.0

>  <vehicle>
unchanged (no vehicle)

>  <edema/ erythema score>
0.45

>  <max_score>
4.0

>  <reversibility>
0.0

>  <Outcome>
0

>  <StandardizerResult>
Remove Explicit Hydrogens (ID: RemoveExplicitH)
Dearomatize (ID: Dearomatize)
Clear Stereo (ID: ClearStereo)
Wedge Clean (ID: WedgeClean)
Mesomerize (ID: Mesomerize)
Tautomerize (ID: Tautomerize)
Aromatize (ID: Aromatize)
Add Explicit Hydrogens (ID: AddExplicitH)
Neutralize (ID: Neutralize)
Clean 2D (ID: Clean2D)


$$$$

  Mrv1812 02121911042D          

 42 41  0  0  0  0            999 V2000
    0.5771    2.8663    0.0000 C   0  0  0  0  0  0  0  0  0  0  0  0
    1.2915    2.4538    0.0000 C   0  0  0  0  0  0  0  0  0  0  0  0
    1.2915    1.6288    0.0000 C   0  0  0  0  0  0  0  0  0  0  0  0
    0.5771    1.2163    0.0000 C   0  0  0  0  0  0  0  0  0  0  0  0
   -0.1374    1.6288    0.0000 O   0  0  0  0  0  0  0  0  0  0  0  0
    0.5771    0.3913    0.0000 O   0  0  0  0  0  0  0  0  0  0  0  0
   -0.1374   -0.0212    0.0000 O   0  0  0  0  0  0  0  0  0  0  0  0
   -0.1374   -0.8462    0.0000 C   0  0  0  0  0  0  0  0  0  0  0  0
   -0.1374   -1.6712    0.0000 C   0  0  0  0  0  0  0  0  0  0  0  0
    0.6876   -0.8462    0.0000 C   0  0  0  0  0  0  0  0  0  0  0  0
   -0.9624   -0.8462    0.0000 C   0  0  0  0  0  0  0  0  0  0  0  0
    2.0060    2.8663    0.0000 C   0  0  0  0  0  0  0  0  0  0  0  0
    2.0060    3.6913    0.0000 C   0  0  0  0  0  0  0  0  0  0  0  0
    2.0060    4.5163    0.0000 C   0  0  0  0  0  0  0  0  0  0  0  0
    2.8310    3.6913    0.0000 C   0  0  0  0  0  0  0  0  0  0  0  0
    1.1810    3.6913    0.0000 C   0  0  0  0  0  0  0  0  0  0  0  0
    0.9896    3.5807    0.0000 H   0  0  0  0  0  0  0  0  0  0  0  0
   -0.1374    3.2788    0.0000 H   0  0  0  0  0  0  0  0  0  0  0  0
    0.1646    2.1518    0.0000 H   0  0  0  0  0  0  0  0  0  0  0  0
    0.5771    2.0413    0.0000 H   0  0  0  0  0  0  0  0  0  0  0  0
    1.7449    0.9395    0.0000 H   0  0  0  0  0  0  0  0  0  0  0  0
    2.1151    1.5808    0.0000 H   0  0  0  0  0  0  0  0  0  0  0  0
   -0.9624   -1.6712    0.0000 H   0  0  0  0  0  0  0  0  0  0  0  0
   -0.1374   -2.4962    0.0000 H   0  0  0  0  0  0  0  0  0  0  0  0
    0.6876   -1.6712    0.0000 H   0  0  0  0  0  0  0  0  0  0  0  0
    1.4498   -1.1620    0.0000 H   0  0  0  0  0  0  0  0  0  0  0  0
    1.2709   -0.2629    0.0000 H   0  0  0  0  0  0  0  0  0  0  0  0
    0.3719   -0.0840    0.0000 H   0  0  0  0  0  0  0  0  0  0  0  0
   -0.6467   -0.0840    0.0000 H   0  0  0  0  0  0  0  0  0  0  0  0
   -1.5458   -0.2629    0.0000 H   0  0  0  0  0  0  0  0  0  0  0  0
   -1.7246   -1.1620    0.0000 H   0  0  0  0  0  0  0  0  0  0  0  0
    2.4593    2.1770    0.0000 H   0  0  0  0  0  0  0  0  0  0  0  0
    2.8296    2.8183    0.0000 H   0  0  0  0  0  0  0  0  0  0  0  0
    2.8310    4.5163    0.0000 H   0  0  0  0  0  0  0  0  0  0  0  0
    2.0060    5.3413    0.0000 H   0  0  0  0  0  0  0  0  0  0  0  0
    1.1810    4.5163    0.0000 H   0  0  0  0  0  0  0  0  0  0  0  0
    3.4137    3.1072    0.0000 H   0  0  0  0  0  0  0  0  0  0  0  0
    3.6560    3.6906    0.0000 H   0  0  0  0  0  0  0  0  0  0  0  0
    3.4146    4.2744    0.0000 H   0  0  0  0  0  0  0  0  0  0  0  0
    1.0377    2.8788    0.0000 H   0  0  0  0  0  0  0  0  0  0  0  0
    1.7113    3.0593    0.0000 H   0  0  0  0  0  0  0  0  0  0  0  0
    0.4665    4.1038    0.0000 H   0  0  0  0  0  0  0  0  0  0  0  0
  1  2  1  0  0  0  0
  2  3  1  0  0  0  0
  3  4  1  0  0  0  0
  4  5  2  0  0  0  0
  4  6  1  0  0  0  0
  6  7  1  0  0  0  0
  7  8  1  0  0  0  0
  8  9  1  0  0  0  0
  8 10  1  0  0  0  0
  8 11  1  0  0  0  0
  2 12  1  0  0  0  0
 12 13  1  0  0  0  0
 13 14  1  0  0  0  0
 13 15  1  0  0  0  0
 13 16  1  0  0  0  0
  1 17  1  0  0  0  0
  1 18  1  0  0  0  0
  1 19  1  0  0  0  0
  2 20  1  0  0  0  0
  3 21  1  0  0  0  0
  3 22  1  0  0  0  0
  9 23  1  0  0  0  0
  9 24  1  0  0  0  0
  9 25  1  0  0  0  0
 10 26  1  0  0  0  0
 10 27  1  0  0  0  0
 10 28  1  0  0  0  0
 11 29  1  0  0  0  0
 11 30  1  0  0  0  0
 11 31  1  0  0  0  0
 12 32  1  0  0  0  0
 12 33  1  0  0  0  0
 14 34  1  0  0  0  0
 14 35  1  0  0  0  0
 14 36  1  0  0  0  0
 15 37  1  0  0  0  0
 15 38  1  0  0  0  0
 15 39  1  0  0  0  0
 16 40  1  0  0  0  0
 16 41  1  0  0  0  0
 16 42  1  0  0  0  0
M  END
>  <id_input>
4997

>  <InChIKey>
VSJBBIJIXZVVLQ-UHFFFAOYSA-N

>  <substance_name>
tert-butyl 3,5,5-trimethylhexaneperoxoate

>  <casrn>
13122-18-4

>  <Molecular weight>
230.34375

>  <guideline>
OECD Guideline 404 (Acute Dermal Irritation / Corrosion)

>  <species>
rabbit

>  <type_of_coverage>
semiocclusive

>  <max_duration(hrs)>
4.0

>  <vehicle>
unchanged (no vehicle)

>  <edema/ erythema score>
0.0

>  <max_score>
4.0

>  <reversibility>
0.0

>  <Outcome>
0

>  <StandardizerResult>
Remove Explicit Hydrogens (ID: RemoveExplicitH)
Clear Stereo (ID: ClearStereo)
Wedge Clean (ID: WedgeClean)
Mesomerize (ID: Mesomerize)
Tautomerize (ID: Tautomerize)
Add Explicit Hydrogens (ID: AddExplicitH)
Neutralize (ID: Neutralize)
Clean 2D (ID: Clean2D)


$$$$

  Mrv1812 02121911042D          

 24 24  0  0  0  0            999 V2000
    2.8579    0.8250    0.0000 C   0  0  0  0  0  0  0  0  0  0  0  0
    2.1434    0.4125    0.0000 O   0  0  0  0  0  0  0  0  0  0  0  0
    1.4290    0.8250    0.0000 C   0  0  0  0  0  0  0  0  0  0  0  0
    1.4290    1.6500    0.0000 O   0  0  0  0  0  0  0  0  0  0  0  0
    0.7145    0.4125    0.0000 C   0  0  0  0  0  0  0  0  0  0  0  0
    0.0000    0.8250    0.0000 C   0  0  0  0  0  0  0  0  0  0  0  0
   -0.7145    0.4125    0.0000 C   0  0  0  0  0  0  0  0  0  0  0  0
   -0.7145   -0.4125    0.0000 C   0  0  0  0  0  0  0  0  0  0  0  0
    0.0000   -0.8250    0.0000 C   0  0  0  0  0  0  0  0  0  0  0  0
    0.7145   -0.4125    0.0000 C   0  0  0  0  0  0  0  0  0  0  0  0
   -1.4289   -0.8250    0.0000 C   0  0  0  0  0  0  0  0  0  0  0  0
   -1.4289   -1.6500    0.0000 O   0  0  0  0  0  0  0  0  0  0  0  0
   -2.1434   -0.4125    0.0000 O   0  0  0  0  0  0  0  0  0  0  0  0
   -2.8579   -0.8250    0.0000 C   0  0  0  0  0  0  0  0  0  0  0  0
    3.2704    0.1105    0.0000 H   0  0  0  0  0  0  0  0  0  0  0  0
    3.5724    1.2375    0.0000 H   0  0  0  0  0  0  0  0  0  0  0  0
    2.4454    1.5395    0.0000 H   0  0  0  0  0  0  0  0  0  0  0  0
    0.0000    1.6500    0.0000 H   0  0  0  0  0  0  0  0  0  0  0  0
   -1.4289    0.8250    0.0000 H   0  0  0  0  0  0  0  0  0  0  0  0
    0.0000   -1.6500    0.0000 H   0  0  0  0  0  0  0  0  0  0  0  0
    1.4290   -0.8250    0.0000 H   0  0  0  0  0  0  0  0  0  0  0  0
   -3.2704   -0.1105    0.0000 H   0  0  0  0  0  0  0  0  0  0  0  0
   -3.5723   -1.2375    0.0000 H   0  0  0  0  0  0  0  0  0  0  0  0
   -2.4454   -1.5395    0.0000 H   0  0  0  0  0  0  0  0  0  0  0  0
  1  2  1  0  0  0  0
  2  3  1  0  0  0  0
  3  4  2  0  0  0  0
  3  5  1  0  0  0  0
  6  5  4  0  0  0  0
  7  6  4  0  0  0  0
  8  7  4  0  0  0  0
  9  8  4  0  0  0  0
 10  9  4  0  0  0  0
  8 11  1  0  0  0  0
 11 12  2  0  0  0  0
 11 13  1  0  0  0  0
 13 14  1  0  0  0  0
  5 10  4  0  0  0  0
  1 15  1  0  0  0  0
  1 16  1  0  0  0  0
  1 17  1  0  0  0  0
  6 18  1  0  0  0  0
  7 19  1  0  0  0  0
  9 20  1  0  0  0  0
 10 21  1  0  0  0  0
 14 22  1  0  0  0  0
 14 23  1  0  0  0  0
 14 24  1  0  0  0  0
M  END
>  <id_input>
1816

>  <InChIKey>
WOZVHXUHUFLZGK-UHFFFAOYSA-N

>  <substance_name>
1,4-dimethyl benzene-1,4-dicarboxylate

>  <casrn>
120-61-6

>  <Molecular weight>
194.1840057373047

>  <guideline>
other: EPA FIFRA, Pesticide Assessment Guidelines Subdivision F; Hazard Evaluation Human and Domestic Animals Section 81-5 "Primary Dermal Irritation Study"

>  <species>
rabbit

>  <type_of_coverage>
semiocclusive

>  <max_duration(hrs)>
4.0

>  <vehicle>
water

>  <edema/ erythema score>
0.0

>  <max_score>
0.0

>  <reversibility>
0.0

>  <Outcome>
0

>  <StandardizerResult>
Remove Explicit Hydrogens (ID: RemoveExplicitH)
Dearomatize (ID: Dearomatize)
Clear Stereo (ID: ClearStereo)
Wedge Clean (ID: WedgeClean)
Mesomerize (ID: Mesomerize)
Tautomerize (ID: Tautomerize)
Aromatize (ID: Aromatize)
Add Explicit Hydrogens (ID: AddExplicitH)
Neutralize (ID: Neutralize)
Clean 2D (ID: Clean2D)


$$$$

  Mrv1812 02121911042D          

 18 18  0  0  0  0            999 V2000
    1.9102    0.6904    0.0000 O   0  0  0  0  0  0  0  0  0  0  0  0
    1.1957    1.1029    0.0000 C   0  0  0  0  0  0  0  0  0  0  0  0
    1.1957    1.9279    0.0000 O   0  0  0  0  0  0  0  0  0  0  0  0
    0.4813    0.6904    0.0000 C   0  0  0  0  0  0  0  0  0  0  0  0
   -0.2332    1.1029    0.0000 C   0  0  0  0  0  0  0  0  0  0  0  0
   -0.9477    0.6904    0.0000 C   0  0  0  0  0  0  0  0  0  0  0  0
   -0.9477   -0.1346    0.0000 C   0  0  0  0  0  0  0  0  0  0  0  0
   -0.2332   -0.5471    0.0000 C   0  0  0  0  0  0  0  0  0  0  0  0
    0.4813   -0.1346    0.0000 C   0  0  0  0  0  0  0  0  0  0  0  0
    1.1957   -0.5471    0.0000 C   0  0  0  0  0  0  0  0  0  0  0  0
    1.9102   -0.1346    0.0000 O   0  0  0  0  0  0  0  0  0  0  0  0
    1.1957   -1.3721    0.0000 O   0  0  0  0  0  0  0  0  0  0  0  0
    2.6247    1.1029    0.0000 H   0  0  0  0  0  0  0  0  0  0  0  0
   -0.2332    1.9279    0.0000 H   0  0  0  0  0  0  0  0  0  0  0  0
   -1.6622    1.1029    0.0000 H   0  0  0  0  0  0  0  0  0  0  0  0
   -1.6622   -0.5471    0.0000 H   0  0  0  0  0  0  0  0  0  0  0  0
   -0.2332   -1.3721    0.0000 H   0  0  0  0  0  0  0  0  0  0  0  0
    2.6247   -0.5471    0.0000 H   0  0  0  0  0  0  0  0  0  0  0  0
  1  2  1  0  0  0  0
  2  3  2  0  0  0  0
  2  4  1  0  0  0  0
  5  4  4  0  0  0  0
  6  5  4  0  0  0  0
  7  6  4  0  0  0  0
  8  7  4  0  0  0  0
  9  8  4  0  0  0  0
  9 10  1  0  0  0  0
 10 11  1  0  0  0  0
 10 12  2  0  0  0  0
  4  9  4  0  0  0  0
  1 13  1  0  0  0  0
  5 14  1  0  0  0  0
  6 15  1  0  0  0  0
  7 16  1  0  0  0  0
  8 17  1  0  0  0  0
 11 18  1  0  0  0  0
M  END
>  <id_input>
3889

>  <InChIKey>
XNGIFLGASWRNHJ-UHFFFAOYSA-N

>  <substance_name>
benzene-1,2-dicarboxylic acid

>  <casrn>
88-99-3

>  <Molecular weight>
166.13084411621094

>  <guideline>
OECD Guideline 404 (Acute Dermal Irritation / Corrosion)

>  <species>
rabbit

>  <max_duration(hrs)>
4.0

>  <edema/ erythema score>
0.0

>  <max_score>
4.0

>  <reversibility>
0.0

>  <Outcome>
0

>  <StandardizerResult>
Remove Explicit Hydrogens (ID: RemoveExplicitH)
Dearomatize (ID: Dearomatize)
Clear Stereo (ID: ClearStereo)
Wedge Clean (ID: WedgeClean)
Mesomerize (ID: Mesomerize)
Tautomerize (ID: Tautomerize)
Aromatize (ID: Aromatize)
Add Explicit Hydrogens (ID: AddExplicitH)
Neutralize (ID: Neutralize)
Clean 2D (ID: Clean2D)


$$$$

  Mrv1812 02121911042D          

 32 31  0  0  0  0            999 V2000
   -1.9845    2.4121    0.0000 C   0  0  0  0  0  0  0  0  0  0  0  0
   -1.2701    2.8246    0.0000 C   0  0  0  0  0  0  0  0  0  0  0  0
   -1.2701    3.6496    0.0000 C   0  0  0  0  0  0  0  0  0  0  0  0
   -0.5556    2.4121    0.0000 O   0  0  0  0  0  0  0  0  0  0  0  0
    0.1589    2.8246    0.0000 C   0  0  0  0  0  0  0  0  0  0  0  0
    0.1589    3.6496    0.0000 O   0  0  0  0  0  0  0  0  0  0  0  0
    0.8733    2.4121    0.0000 C   0  0  0  0  0  0  0  0  0  0  0  0
    1.5878    2.8246    0.0000 C   0  0  0  0  0  0  0  0  0  0  0  0
    2.3023    2.4121    0.0000 C   0  0  0  0  0  0  0  0  0  0  0  0
    2.3023    1.5871    0.0000 O   0  0  0  0  0  0  0  0  0  0  0  0
    3.0168    2.8246    0.0000 O   0  0  0  0  0  0  0  0  0  0  0  0
    3.7312    2.4121    0.0000 C   0  0  0  0  0  0  0  0  0  0  0  0
    4.4457    2.8246    0.0000 C   0  0  0  0  0  0  0  0  0  0  0  0
    3.7312    1.5871    0.0000 C   0  0  0  0  0  0  0  0  0  0  0  0
   -2.3970    3.1266    0.0000 H   0  0  0  0  0  0  0  0  0  0  0  0
   -2.6990    1.9996    0.0000 H   0  0  0  0  0  0  0  0  0  0  0  0
   -1.5720    1.6976    0.0000 H   0  0  0  0  0  0  0  0  0  0  0  0
   -1.9845    3.2371    0.0000 H   0  0  0  0  0  0  0  0  0  0  0  0
   -0.4732    3.4361    0.0000 H   0  0  0  0  0  0  0  0  0  0  0  0
   -0.8576    4.3641    0.0000 H   0  0  0  0  0  0  0  0  0  0  0  0
   -1.8534    4.2330    0.0000 H   0  0  0  0  0  0  0  0  0  0  0  0
    0.5031    1.6748    0.0000 H   0  0  0  0  0  0  0  0  0  0  0  0
    1.2436    1.6748    0.0000 H   0  0  0  0  0  0  0  0  0  0  0  0
    1.9581    3.5618    0.0000 H   0  0  0  0  0  0  0  0  0  0  0  0
    1.2176    3.5618    0.0000 H   0  0  0  0  0  0  0  0  0  0  0  0
    3.7312    3.2371    0.0000 H   0  0  0  0  0  0  0  0  0  0  0  0
    4.6592    2.0277    0.0000 H   0  0  0  0  0  0  0  0  0  0  0  0
    5.2707    2.8246    0.0000 H   0  0  0  0  0  0  0  0  0  0  0  0
    4.6592    3.6215    0.0000 H   0  0  0  0  0  0  0  0  0  0  0  0
    2.9062    1.5871    0.0000 H   0  0  0  0  0  0  0  0  0  0  0  0
    3.7312    0.7621    0.0000 H   0  0  0  0  0  0  0  0  0  0  0  0
    4.5562    1.5871    0.0000 H   0  0  0  0  0  0  0  0  0  0  0  0
  1  2  1  0  0  0  0
  2  3  1  0  0  0  0
  2  4  1  0  0  0  0
  4  5  1  0  0  0  0
  5  6  2  0  0  0  0
  5  7  1  0  0  0  0
  7  8  1  0  0  0  0
  8  9  1  0  0  0  0
  9 10  2  0  0  0  0
  9 11  1  0  0  0  0
 11 12  1  0  0  0  0
 12 13  1  0  0  0  0
 12 14  1  0  0  0  0
  1 15  1  0  0  0  0
  1 16  1  0  0  0  0
  1 17  1  0  0  0  0
  2 18  1  0  0  0  0
  3 19  1  0  0  0  0
  3 20  1  0  0  0  0
  3 21  1  0  0  0  0
  7 22  1  0  0  0  0
  7 23  1  0  0  0  0
  8 24  1  0  0  0  0
  8 25  1  0  0  0  0
 12 26  1  0  0  0  0
 13 27  1  0  0  0  0
 13 28  1  0  0  0  0
 13 29  1  0  0  0  0
 14 30  1  0  0  0  0
 14 31  1  0  0  0  0
 14 32  1  0  0  0  0
M  END
>  <id_input>
4163

>  <InChIKey>
YPLYFEUBZLLLIY-UHFFFAOYSA-N

>  <substance_name>
diisopropyl succinate

>  <casrn>
924-88-9

>  <Molecular weight>
202.24752807617188

>  <guideline>
OECD Guideline 404 (Acute Dermal Irritation / Corrosion)

>  <species>
rabbit

>  <type_of_coverage>
semiocclusive

>  <max_duration(hrs)>
4.0

>  <vehicle>
unchanged (no vehicle)

>  <edema/ erythema score>
0.0

>  <max_score>
0.0

>  <reversibility>
0.0

>  <Outcome>
0

>  <StandardizerResult>
Remove Explicit Hydrogens (ID: RemoveExplicitH)
Clear Stereo (ID: ClearStereo)
Wedge Clean (ID: WedgeClean)
Mesomerize (ID: Mesomerize)
Tautomerize (ID: Tautomerize)
Add Explicit Hydrogens (ID: AddExplicitH)
Neutralize (ID: Neutralize)
Clean 2D (ID: Clean2D)


$$$$

  Mrv1812 02121911042D          

 31 31  0  0  0  0            999 V2000
    2.3987    0.3285    0.0000 C   0  0  0  0  0  0  0  0  0  0  0  0
    1.6843    0.7410    0.0000 C   0  0  0  0  0  0  0  0  0  0  0  0
    1.6843    1.5660    0.0000 C   0  0  0  0  0  0  0  0  0  0  0  0
    0.9698    0.3285    0.0000 C   0  0  0  0  0  0  0  0  0  0  0  0
    0.2553    0.7410    0.0000 C   0  0  0  0  0  0  0  0  0  0  0  0
   -0.4591    0.3285    0.0000 C   0  0  0  0  0  0  0  0  0  0  0  0
   -0.4591   -0.4965    0.0000 C   0  0  0  0  0  0  0  0  0  0  0  0
   -1.1736   -0.9090    0.0000 C   0  0  0  0  0  0  0  0  0  0  0  0
    0.2553   -0.9090    0.0000 C   0  0  0  0  0  0  0  0  0  0  0  0
    0.9698   -0.4965    0.0000 C   0  0  0  0  0  0  0  0  0  0  0  0
    1.6843   -0.9090    0.0000 O   0  0  0  0  0  0  0  0  0  0  0  0
    1.9862   -0.3860    0.0000 H   0  0  0  0  0  0  0  0  0  0  0  0
    3.1132   -0.0840    0.0000 H   0  0  0  0  0  0  0  0  0  0  0  0
    2.8112    1.0429    0.0000 H   0  0  0  0  0  0  0  0  0  0  0  0
    2.3987    1.1535    0.0000 H   0  0  0  0  0  0  0  0  0  0  0  0
    2.2676    2.1493    0.0000 H   0  0  0  0  0  0  0  0  0  0  0  0
    1.2718    2.2804    0.0000 H   0  0  0  0  0  0  0  0  0  0  0  0
    0.8874    1.3524    0.0000 H   0  0  0  0  0  0  0  0  0  0  0  0
    0.9698    1.1535    0.0000 H   0  0  0  0  0  0  0  0  0  0  0  0
    0.1210    1.5550    0.0000 H   0  0  0  0  0  0  0  0  0  0  0  0
   -0.4904    1.0937    0.0000 H   0  0  0  0  0  0  0  0  0  0  0  0
   -1.1846    0.7213    0.0000 H   0  0  0  0  0  0  0  0  0  0  0  0
   -1.1679   -0.0937    0.0000 H   0  0  0  0  0  0  0  0  0  0  0  0
   -0.4591   -1.3215    0.0000 H   0  0  0  0  0  0  0  0  0  0  0  0
   -1.8859   -0.4928    0.0000 H   0  0  0  0  0  0  0  0  0  0  0  0
   -1.8895   -1.3190    0.0000 H   0  0  0  0  0  0  0  0  0  0  0  0
   -1.1751   -1.7340    0.0000 H   0  0  0  0  0  0  0  0  0  0  0  0
    0.3986   -1.7215    0.0000 H   0  0  0  0  0  0  0  0  0  0  0  0
    0.8873   -1.4393    0.0000 H   0  0  0  0  0  0  0  0  0  0  0  0
    0.2553   -0.0840    0.0000 H   0  0  0  0  0  0  0  0  0  0  0  0
    2.2859   -1.4736    0.0000 H   0  0  0  0  0  0  0  0  0  0  0  0
  1  2  1  0  0  0  0
  2  3  1  0  0  0  0
  2  4  1  0  0  0  0
  5  4  1  0  0  0  0
  6  5  1  0  0  0  0
  7  6  1  0  0  0  0
  7  8  1  0  0  0  0
  9  7  1  0  0  0  0
 10  9  1  0  0  0  0
 10 11  1  0  0  0  0
  4 10  1  0  0  0  0
  1 12  1  0  0  0  0
  1 13  1  0  0  0  0
  1 14  1  0  0  0  0
  2 15  1  0  0  0  0
  3 16  1  0  0  0  0
  3 17  1  0  0  0  0
  3 18  1  0  0  0  0
  4 19  1  0  0  0  0
  5 20  1  0  0  0  0
  5 21  1  0  0  0  0
  6 22  1  0  0  0  0
  6 23  1  0  0  0  0
  7 24  1  0  0  0  0
  8 25  1  0  0  0  0
  8 26  1  0  0  0  0
  8 27  1  0  0  0  0
  9 28  1  0  0  0  0
  9 29  1  0  0  0  0
 10 30  1  0  0  0  0
 11 31  1  0  0  0  0
M  END
>  <id_input>
15, 162, 163, 2514

>  <InChIKey>
NOOLISFMXDJSKH-UHFFFAOYSA-N

>  <substance_name>
(1R,2S,5R)-5-methyl-2-(propan-2-yl)cyclohexan-1-ol

>  <casrn>
2216-51-5

>  <Molecular weight>
156.26519775390625

>  <guideline>
OECD Guideline 404 (Acute Dermal Irritation / Corrosion)

>  <species>
rabbit

>  <type_of_coverage>
semiocclusive

>  <max_duration(hrs)>
4.0

>  <vehicle>
other: Diethyl phthalate (DEP)

>  <edema/ erythema score>
0.9816666666666614

>  <max_score>
3.0

>  <reversibility>
0.0

>  <Outcome>
0

>  <StandardizerResult>
Remove Explicit Hydrogens (ID: RemoveExplicitH)
Clear Stereo (ID: ClearStereo)
Wedge Clean (ID: WedgeClean)
Mesomerize (ID: Mesomerize)
Tautomerize (ID: Tautomerize)
Add Explicit Hydrogens (ID: AddExplicitH)
Neutralize (ID: Neutralize)
Clean 2D (ID: Clean2D)


$$$$

  Mrv1812 02121911042D          

 45 45  0  0  0  0            999 V2000
    0.1364    2.7584    0.0000 O   0  0  0  0  0  0  0  0  0  0  0  0
    0.3613    1.9647    0.0000 C   0  0  0  0  0  0  0  0  0  0  0  0
   -0.2136    1.3730    0.0000 C   0  0  0  0  0  0  0  0  0  0  0  0
   -1.0135    1.5750    0.0000 C   0  0  0  0  0  0  0  0  0  0  0  0
   -1.5884    0.9834    0.0000 C   0  0  0  0  0  0  0  0  0  0  0  0
   -1.3634    0.1896    0.0000 C   0  0  0  0  0  0  0  0  0  0  0  0
   -1.9383   -0.4021    0.0000 C   0  0  0  0  0  0  0  0  0  0  0  0
   -1.7134   -1.1958    0.0000 C   0  0  0  0  0  0  0  0  0  0  0  0
   -0.9135   -1.3979    0.0000 C   0  0  0  0  0  0  0  0  0  0  0  0
   -0.6885   -2.1916    0.0000 C   0  0  0  0  0  0  0  0  0  0  0  0
    0.1114   -2.3936    0.0000 C   0  0  0  0  0  0  0  0  0  0  0  0
    0.6863   -1.8019    0.0000 C   0  0  0  0  0  0  0  0  0  0  0  0
    0.4613   -1.0082    0.0000 C   0  0  0  0  0  0  0  0  0  0  0  0
    1.0362   -0.4165    0.0000 C   0  0  0  0  0  0  0  0  0  0  0  0
    0.8113    0.3772    0.0000 C   0  0  0  0  0  0  0  0  0  0  0  0
    1.3862    0.9689    0.0000 C   0  0  0  0  0  0  0  0  0  0  0  0
    1.1612    1.7627    0.0000 C   0  0  0  0  0  0  0  0  0  0  0  0
   -0.3688    0.5627    0.0000 H   0  0  0  0  0  0  0  0  0  0  0  0
    0.3437    0.7647    0.0000 H   0  0  0  0  0  0  0  0  0  0  0  0
   -0.8583    2.3853    0.0000 H   0  0  0  0  0  0  0  0  0  0  0  0
   -1.5707    2.1834    0.0000 H   0  0  0  0  0  0  0  0  0  0  0  0
   -2.2125    1.5229    0.0000 H   0  0  0  0  0  0  0  0  0  0  0  0
   -2.3939    0.8049    0.0000 H   0  0  0  0  0  0  0  0  0  0  0  0
   -0.7393   -0.3499    0.0000 H   0  0  0  0  0  0  0  0  0  0  0  0
   -0.5579    0.3681    0.0000 H   0  0  0  0  0  0  0  0  0  0  0  0
   -2.5624    0.1375    0.0000 H   0  0  0  0  0  0  0  0  0  0  0  0
   -2.7438   -0.5805    0.0000 H   0  0  0  0  0  0  0  0  0  0  0  0
   -2.4927   -1.4665    0.0000 H   0  0  0  0  0  0  0  0  0  0  0  0
   -1.9616   -1.9826    0.0000 H   0  0  0  0  0  0  0  0  0  0  0  0
   -0.1342   -1.1271    0.0000 H   0  0  0  0  0  0  0  0  0  0  0  0
   -0.6653   -0.6111    0.0000 H   0  0  0  0  0  0  0  0  0  0  0  0
   -1.4678   -2.4623    0.0000 H   0  0  0  0  0  0  0  0  0  0  0  0
   -0.9367   -2.9784    0.0000 H   0  0  0  0  0  0  0  0  0  0  0  0
   -0.0438   -3.2039    0.0000 H   0  0  0  0  0  0  0  0  0  0  0  0
    0.6686   -3.0020    0.0000 H   0  0  0  0  0  0  0  0  0  0  0  0
    1.3104   -2.3415    0.0000 H   0  0  0  0  0  0  0  0  0  0  0  0
    1.4917   -1.6235    0.0000 H   0  0  0  0  0  0  0  0  0  0  0  0
    0.0669   -0.2836    0.0000 H   0  0  0  0  0  0  0  0  0  0  0  0
    1.8361   -0.6185    0.0000 H   0  0  0  0  0  0  0  0  0  0  0  0
    0.1201   -0.0732    0.0000 H   0  0  0  0  0  0  0  0  0  0  0  0
    1.6111    0.1752    0.0000 H   0  0  0  0  0  0  0  0  0  0  0  0
    2.2090    0.9088    0.0000 H   0  0  0  0  0  0  0  0  0  0  0  0
    2.0551    1.4518    0.0000 H   0  0  0  0  0  0  0  0  0  0  0  0
    1.6604    2.4195    0.0000 H   0  0  0  0  0  0  0  0  0  0  0  0
    1.1054    2.5858    0.0000 H   0  0  0  0  0  0  0  0  0  0  0  0
  1  2  2  0  0  0  0
  3  2  1  0  0  0  0
  4  3  1  0  0  0  0
  5  4  1  0  0  0  0
  6  5  1  0  0  0  0
  7  6  1  0  0  0  0
  8  7  1  0  0  0  0
  9  8  1  0  0  0  0
 10  9  1  0  0  0  0
 11 10  1  0  0  0  0
 12 11  1  0  0  0  0
 13 12  1  0  0  0  0
 14 13  2  0  0  0  0
 14 15  1  4  0  0  0
 16 15  1  0  0  0  0
 17 16  1  0  0  0  0
  2 17  1  0  0  0  0
  3 18  1  0  0  0  0
  3 19  1  0  0  0  0
  4 20  1  0  0  0  0
  4 21  1  0  0  0  0
  5 22  1  0  0  0  0
  5 23  1  0  0  0  0
  6 24  1  0  0  0  0
  6 25  1  0  0  0  0
  7 26  1  0  0  0  0
  7 27  1  0  0  0  0
  8 28  1  0  0  0  0
  8 29  1  0  0  0  0
  9 30  1  0  0  0  0
  9 31  1  0  0  0  0
 10 32  1  0  0  0  0
 10 33  1  0  0  0  0
 11 34  1  0  0  0  0
 11 35  1  0  0  0  0
 12 36  1  0  0  0  0
 12 37  1  0  0  0  0
 13 38  1  0  0  0  0
 14 39  1  0  0  0  0
 15 40  1  0  0  0  0
 15 41  1  0  0  0  0
 16 42  1  0  0  0  0
 16 43  1  0  0  0  0
 17 44  1  0  0  0  0
 17 45  1  0  0  0  0
M  END
>  <id_input>
132

>  <InChIKey>
ABRIMXGLNHCLIP-SOFGYWHQSA-N

>  <substance_name>
(5Z)-cyclohexadec-5-en-1-one

>  <casrn>
37609-25-9

>  <Molecular weight>
236.39292907714844

>  <guideline>
OECD Guideline 404 (Acute Dermal Irritation / Corrosion)

>  <species>
rabbit

>  <type_of_coverage>
semiocclusive

>  <max_duration(hrs)>
4.0

>  <vehicle>
unchanged (no vehicle)

>  <edema/ erythema score>
0.5

>  <max_score>
1.0

>  <reversibility>
0.0

>  <Outcome>
0

>  <StandardizerResult>
Remove Explicit Hydrogens (ID: RemoveExplicitH)
Clear Stereo (ID: ClearStereo)
Wedge Clean (ID: WedgeClean)
Mesomerize (ID: Mesomerize)
Tautomerize (ID: Tautomerize)
Add Explicit Hydrogens (ID: AddExplicitH)
Neutralize (ID: Neutralize)
Clean 2D (ID: Clean2D)


$$$$

  Mrv1812 02121911042D          

 14 13  0  0  0  0            999 V2000
    0.8460    1.4972    0.0000 C   0  0  0  0  0  0  0  0  0  0  0  0
    1.2585    0.7827    0.0000 C   0  0  0  0  0  0  0  0  0  0  0  0
    0.8460    0.0683    0.0000 C   0  0  0  0  0  0  0  0  0  0  0  0
    1.2585   -0.6462    0.0000 C   0  0  0  0  0  0  0  0  0  0  0  0
    0.0210    0.0683    0.0000 Cl  0  0  0  0  0  0  0  0  0  0  0  0
    1.5605    1.9097    0.0000 H   0  0  0  0  0  0  0  0  0  0  0  0
    0.4335    2.2117    0.0000 H   0  0  0  0  0  0  0  0  0  0  0  0
    0.1315    1.0847    0.0000 H   0  0  0  0  0  0  0  0  0  0  0  0
    1.9958    0.4125    0.0000 H   0  0  0  0  0  0  0  0  0  0  0  0
    1.9958    1.1530    0.0000 H   0  0  0  0  0  0  0  0  0  0  0  0
    1.6710    0.0683    0.0000 H   0  0  0  0  0  0  0  0  0  0  0  0
    0.4616   -0.8597    0.0000 H   0  0  0  0  0  0  0  0  0  0  0  0
    1.2585   -1.4712    0.0000 H   0  0  0  0  0  0  0  0  0  0  0  0
    2.0554   -0.8597    0.0000 H   0  0  0  0  0  0  0  0  0  0  0  0
  1  2  1  0  0  0  0
  2  3  1  0  0  0  0
  3  4  1  0  0  0  0
  3  5  1  0  0  0  0
  1  6  1  0  0  0  0
  1  7  1  0  0  0  0
  1  8  1  0  0  0  0
  2  9  1  0  0  0  0
  2 10  1  0  0  0  0
  3 11  1  0  0  0  0
  4 12  1  0  0  0  0
  4 13  1  0  0  0  0
  4 14  1  0  0  0  0
M  END
>  <id_input>
2436

>  <InChIKey>
BSPCSKHALVHRSR-UHFFFAOYSA-N

>  <substance_name>
2-chlorobutane

>  <casrn>
78-86-4

>  <Molecular weight>
92.5672607421875

>  <guideline>
OECD Guideline 404 (Acute Dermal Irritation / Corrosion)

>  <species>
rabbit

>  <type_of_coverage>
semiocclusive

>  <max_duration(hrs)>
4.0

>  <vehicle>
unchanged (no vehicle)

>  <edema/ erythema score>
0.5

>  <max_score>
4.0

>  <reversibility>
0.0

>  <Outcome>
0

>  <StandardizerResult>
Remove Explicit Hydrogens (ID: RemoveExplicitH)
Clear Stereo (ID: ClearStereo)
Wedge Clean (ID: WedgeClean)
Mesomerize (ID: Mesomerize)
Tautomerize (ID: Tautomerize)
Add Explicit Hydrogens (ID: AddExplicitH)
Neutralize (ID: Neutralize)
Clean 2D (ID: Clean2D)


$$$$

  Mrv1812 02121911042D          

 50 49  0  0  0  0            999 V2000
    7.2252   -2.5494    0.0000 C   0  0  0  0  0  0  0  0  0  0  0  0
    6.5107   -2.9619    0.0000 O   0  0  0  0  0  0  0  0  0  0  0  0
    5.7963   -2.5494    0.0000 Si  0  0  0  0  0  4  0  0  0  0  0  0
    5.0818   -2.1369    0.0000 C   0  0  0  0  0  0  0  0  0  0  0  0
    4.3673   -2.5494    0.0000 C   0  0  0  0  0  0  0  0  0  0  0  0
    3.6529   -2.1369    0.0000 C   0  0  0  0  0  0  0  0  0  0  0  0
    2.9384   -2.5494    0.0000 C   0  0  0  0  0  0  0  0  0  0  0  0
    2.2239   -2.1369    0.0000 C   0  0  0  0  0  0  0  0  0  0  0  0
    1.5094   -2.5494    0.0000 C   0  0  0  0  0  0  0  0  0  0  0  0
    0.7950   -2.1369    0.0000 Si  0  0  0  0  0  4  0  0  0  0  0  0
    0.0805   -1.7244    0.0000 O   0  0  0  0  0  0  0  0  0  0  0  0
   -0.6340   -2.1369    0.0000 C   0  0  0  0  0  0  0  0  0  0  0  0
    1.2075   -1.4224    0.0000 O   0  0  0  0  0  0  0  0  0  0  0  0
    0.7950   -0.7079    0.0000 C   0  0  0  0  0  0  0  0  0  0  0  0
    0.3825   -2.8514    0.0000 O   0  0  0  0  0  0  0  0  0  0  0  0
   -0.4425   -2.8514    0.0000 C   0  0  0  0  0  0  0  0  0  0  0  0
    6.2088   -1.8349    0.0000 O   0  0  0  0  0  0  0  0  0  0  0  0
    5.7963   -1.1204    0.0000 C   0  0  0  0  0  0  0  0  0  0  0  0
    5.3838   -3.2639    0.0000 O   0  0  0  0  0  0  0  0  0  0  0  0
    4.5588   -3.2639    0.0000 C   0  0  0  0  0  0  0  0  0  0  0  0
    7.6377   -3.2639    0.0000 H   0  0  0  0  0  0  0  0  0  0  0  0
    7.9397   -2.1369    0.0000 H   0  0  0  0  0  0  0  0  0  0  0  0
    6.8127   -1.8349    0.0000 H   0  0  0  0  0  0  0  0  0  0  0  0
    5.4521   -1.3996    0.0000 H   0  0  0  0  0  0  0  0  0  0  0  0
    4.7115   -1.3996    0.0000 H   0  0  0  0  0  0  0  0  0  0  0  0
    3.7128   -3.0516    0.0000 H   0  0  0  0  0  0  0  0  0  0  0  0
    5.1295   -2.8651    0.0000 H   0  0  0  0  0  0  0  0  0  0  0  0
    4.0231   -1.3996    0.0000 H   0  0  0  0  0  0  0  0  0  0  0  0
    3.2826   -1.3996    0.0000 H   0  0  0  0  0  0  0  0  0  0  0  0
    2.2169   -2.9495    0.0000 H   0  0  0  0  0  0  0  0  0  0  0  0
    2.9099   -3.3739    0.0000 H   0  0  0  0  0  0  0  0  0  0  0  0
    2.5942   -1.3996    0.0000 H   0  0  0  0  0  0  0  0  0  0  0  0
    1.8537   -1.3996    0.0000 H   0  0  0  0  0  0  0  0  0  0  0  0
    0.8793   -3.0819    0.0000 H   0  0  0  0  0  0  0  0  0  0  0  0
    1.3706   -3.3626    0.0000 H   0  0  0  0  0  0  0  0  0  0  0  0
   -0.6879   -1.3137    0.0000 H   0  0  0  0  0  0  0  0  0  0  0  0
   -1.3962   -1.8212    0.0000 H   0  0  0  0  0  0  0  0  0  0  0  0
   -1.2542   -2.6808    0.0000 H   0  0  0  0  0  0  0  0  0  0  0  0
    1.5094   -0.2954    0.0000 H   0  0  0  0  0  0  0  0  0  0  0  0
    0.3825    0.0065    0.0000 H   0  0  0  0  0  0  0  0  0  0  0  0
    0.0805   -1.1204    0.0000 H   0  0  0  0  0  0  0  0  0  0  0  0
   -0.8203   -3.5848    0.0000 H   0  0  0  0  0  0  0  0  0  0  0  0
   -0.2236   -3.6468    0.0000 H   0  0  0  0  0  0  0  0  0  0  0  0
    0.0597   -2.1968    0.0000 H   0  0  0  0  0  0  0  0  0  0  0  0
    6.6093   -0.9806    0.0000 H   0  0  0  0  0  0  0  0  0  0  0  0
    5.9463   -0.3092    0.0000 H   0  0  0  0  0  0  0  0  0  0  0  0
    5.0870   -0.6991    0.0000 H   0  0  0  0  0  0  0  0  0  0  0  0
    3.8783   -3.7304    0.0000 H   0  0  0  0  0  0  0  0  0  0  0  0
    4.4576   -4.0826    0.0000 H   0  0  0  0  0  0  0  0  0  0  0  0
    5.1052   -3.8819    0.0000 H   0  0  0  0  0  0  0  0  0  0  0  0
  1  2  1  0  0  0  0
  2  3  1  0  0  0  0
  3  4  1  0  0  0  0
  4  5  1  0  0  0  0
  5  6  1  0  0  0  0
  6  7  1  0  0  0  0
  7  8  1  0  0  0  0
  8  9  1  0  0  0  0
  9 10  1  0  0  0  0
 10 11  1  0  0  0  0
 11 12  1  0  0  0  0
 10 13  1  0  0  0  0
 13 14  1  0  0  0  0
 10 15  1  0  0  0  0
 15 16  1  0  0  0  0
  3 17  1  0  0  0  0
 17 18  1  0  0  0  0
  3 19  1  0  0  0  0
 19 20  1  0  0  0  0
  1 21  1  0  0  0  0
  1 22  1  0  0  0  0
  1 23  1  0  0  0  0
  4 24  1  0  0  0  0
  4 25  1  0  0  0  0
  5 26  1  0  0  0  0
  5 27  1  0  0  0  0
  6 28  1  0  0  0  0
  6 29  1  0  0  0  0
  7 30  1  0  0  0  0
  7 31  1  0  0  0  0
  8 32  1  0  0  0  0
  8 33  1  0  0  0  0
  9 34  1  0  0  0  0
  9 35  1  0  0  0  0
 12 36  1  0  0  0  0
 12 37  1  0  0  0  0
 12 38  1  0  0  0  0
 14 39  1  0  0  0  0
 14 40  1  0  0  0  0
 14 41  1  0  0  0  0
 16 42  1  0  0  0  0
 16 43  1  0  0  0  0
 16 44  1  0  0  0  0
 18 45  1  0  0  0  0
 18 46  1  0  0  0  0
 18 47  1  0  0  0  0
 20 48  1  0  0  0  0
 20 49  1  0  0  0  0
 20 50  1  0  0  0  0
M  END
>  <id_input>
5523

>  <InChIKey>
GFKCWAROGHMSTC-UHFFFAOYSA-N

>  <substance_name>
unnamed [87135-01-1]

>  <casrn>
87135-01-1

>  <Molecular weight>
326.53399658203125

>  <guideline>
OECD Guideline 404 (Acute Dermal Irritation / Corrosion)

>  <species>
rabbit

>  <type_of_coverage>
semiocclusive

>  <max_duration(hrs)>
4.0

>  <vehicle>
unchanged (no vehicle)

>  <edema/ erythema score>
0.0

>  <max_score>
4.0

>  <reversibility>
0.0

>  <Outcome>
0

>  <StandardizerResult>
Remove Explicit Hydrogens (ID: RemoveExplicitH)
Clear Stereo (ID: ClearStereo)
Wedge Clean (ID: WedgeClean)
Mesomerize (ID: Mesomerize)
Tautomerize (ID: Tautomerize)
Add Explicit Hydrogens (ID: AddExplicitH)
Neutralize (ID: Neutralize)
Clean 2D (ID: Clean2D)


$$$$

  Mrv1812 02121911042D          

 29 28  0  0  0  0            999 V2000
   -1.0594    2.3016    0.0000 C   0  0  0  0  0  0  0  0  0  0  0  0
   -0.3449    1.8891    0.0000 C   0  0  0  0  0  0  0  0  0  0  0  0
   -0.3449    1.0641    0.0000 O   0  0  0  0  0  0  0  0  0  0  0  0
    0.3695    2.3016    0.0000 C   0  0  0  0  0  0  0  0  0  0  0  0
    1.0840    1.8891    0.0000 C   0  0  0  0  0  0  0  0  0  0  0  0
    1.0840    1.0641    0.0000 O   0  0  0  0  0  0  0  0  0  0  0  0
    1.7985    2.3016    0.0000 O   0  0  0  0  0  0  0  0  0  0  0  0
    2.5130    1.8891    0.0000 C   0  0  0  0  0  0  0  0  0  0  0  0
    3.2274    2.3016    0.0000 C   0  0  0  0  0  0  0  0  0  0  0  0
    3.9419    1.8891    0.0000 O   0  0  0  0  0  0  0  0  0  0  0  0
    4.6564    2.3016    0.0000 C   0  0  0  0  0  0  0  0  0  0  0  0
    4.6564    3.1266    0.0000 O   0  0  0  0  0  0  0  0  0  0  0  0
    5.3708    1.8891    0.0000 C   0  0  0  0  0  0  0  0  0  0  0  0
    6.0853    2.3016    0.0000 C   0  0  0  0  0  0  0  0  0  0  0  0
    5.3708    1.0641    0.0000 C   0  0  0  0  0  0  0  0  0  0  0  0
   -0.6469    3.0161    0.0000 H   0  0  0  0  0  0  0  0  0  0  0  0
   -1.7739    2.7141    0.0000 H   0  0  0  0  0  0  0  0  0  0  0  0
   -1.4719    1.5871    0.0000 H   0  0  0  0  0  0  0  0  0  0  0  0
    0.7398    3.0388    0.0000 H   0  0  0  0  0  0  0  0  0  0  0  0
   -0.0007    3.0388    0.0000 H   0  0  0  0  0  0  0  0  0  0  0  0
    2.1427    1.1518    0.0000 H   0  0  0  0  0  0  0  0  0  0  0  0
    2.8832    1.1518    0.0000 H   0  0  0  0  0  0  0  0  0  0  0  0
    3.5977    3.0388    0.0000 H   0  0  0  0  0  0  0  0  0  0  0  0
    2.8572    3.0388    0.0000 H   0  0  0  0  0  0  0  0  0  0  0  0
    6.4978    1.5871    0.0000 H   0  0  0  0  0  0  0  0  0  0  0  0
    6.7998    2.7141    0.0000 H   0  0  0  0  0  0  0  0  0  0  0  0
    5.6728    3.0161    0.0000 H   0  0  0  0  0  0  0  0  0  0  0  0
    4.6564    0.6516    0.0000 H   0  0  0  0  0  0  0  0  0  0  0  0
    6.0853    0.6516    0.0000 H   0  0  0  0  0  0  0  0  0  0  0  0
  1  2  1  0  0  0  0
  2  3  2  0  0  0  0
  2  4  1  0  0  0  0
  4  5  1  0  0  0  0
  5  6  2  0  0  0  0
  5  7  1  0  0  0  0
  7  8  1  0  0  0  0
  8  9  1  0  0  0  0
  9 10  1  0  0  0  0
 10 11  1  0  0  0  0
 11 12  2  0  0  0  0
 11 13  1  0  0  0  0
 13 14  1  0  0  0  0
 13 15  2  0  0  0  0
  1 16  1  0  0  0  0
  1 17  1  0  0  0  0
  1 18  1  0  0  0  0
  4 19  1  0  0  0  0
  4 20  1  0  0  0  0
  8 21  1  0  0  0  0
  8 22  1  0  0  0  0
  9 23  1  0  0  0  0
  9 24  1  0  0  0  0
 14 25  1  0  0  0  0
 14 26  1  0  0  0  0
 14 27  1  0  0  0  0
 15 28  1  0  0  0  0
 15 29  1  0  0  0  0
M  END
>  <id_input>
2244

>  <InChIKey>
IBDVWXAVKPRHCU-UHFFFAOYSA-N

>  <substance_name>
2-[(2-methylprop-2-enoyl)oxy]ethyl 3-oxobutanoate

>  <casrn>
21282-97-3

>  <Molecular weight>
214.2151641845703

>  <guideline>
OECD Guideline 404 (Acute Dermal Irritation / Corrosion)

>  <species>
rabbit

>  <type_of_coverage>
occlusive

>  <max_duration(hrs)>
4.0

>  <vehicle>
unchanged (no vehicle)

>  <edema/ erythema score>
0.0

>  <max_score>
0.0

>  <reversibility>
0.0

>  <Outcome>
0

>  <StandardizerResult>
Remove Explicit Hydrogens (ID: RemoveExplicitH)
Clear Stereo (ID: ClearStereo)
Wedge Clean (ID: WedgeClean)
Mesomerize (ID: Mesomerize)
Tautomerize (ID: Tautomerize)
Add Explicit Hydrogens (ID: AddExplicitH)
Neutralize (ID: Neutralize)
Clean 2D (ID: Clean2D)


$$$$

  Mrv1812 02121911042D          

 37 37  0  0  0  0            999 V2000
    4.1409    0.1734    0.0000 C   0  0  0  0  0  0  0  0  0  0  0  0
    3.4264    0.5859    0.0000 C   0  0  0  0  0  0  0  0  0  0  0  0
    3.8389    1.3004    0.0000 C   0  0  0  0  0  0  0  0  0  0  0  0
    3.0139   -0.1286    0.0000 C   0  0  0  0  0  0  0  0  0  0  0  0
    2.7120    0.9984    0.0000 C   0  0  0  0  0  0  0  0  0  0  0  0
    1.9975    0.5859    0.0000 C   0  0  0  0  0  0  0  0  0  0  0  0
    1.5850    1.3004    0.0000 C   0  0  0  0  0  0  0  0  0  0  0  0
    2.4100   -0.1286    0.0000 C   0  0  0  0  0  0  0  0  0  0  0  0
    1.2830    0.1734    0.0000 C   0  0  0  0  0  0  0  0  0  0  0  0
    0.5686    0.5859    0.0000 C   0  0  0  0  0  0  0  0  0  0  0  0
   -0.1459    0.1734    0.0000 C   0  0  0  0  0  0  0  0  0  0  0  0
   -0.1459   -0.6516    0.0000 C   0  0  0  0  0  0  0  0  0  0  0  0
   -0.8604   -1.0641    0.0000 O   0  0  0  0  0  0  0  0  0  0  0  0
    0.5686   -1.0641    0.0000 C   0  0  0  0  0  0  0  0  0  0  0  0
    1.2830   -0.6516    0.0000 C   0  0  0  0  0  0  0  0  0  0  0  0
    3.7284   -0.5411    0.0000 H   0  0  0  0  0  0  0  0  0  0  0  0
    4.8554   -0.2391    0.0000 H   0  0  0  0  0  0  0  0  0  0  0  0
    4.5534    0.8879    0.0000 H   0  0  0  0  0  0  0  0  0  0  0  0
    4.4935    1.8026    0.0000 H   0  0  0  0  0  0  0  0  0  0  0  0
    3.6254    2.0973    0.0000 H   0  0  0  0  0  0  0  0  0  0  0  0
    3.0210    1.4081    0.0000 H   0  0  0  0  0  0  0  0  0  0  0  0
    2.4836   -0.7606    0.0000 H   0  0  0  0  0  0  0  0  0  0  0  0
    3.1572   -0.9410    0.0000 H   0  0  0  0  0  0  0  0  0  0  0  0
    2.6014    0.5859    0.0000 H   0  0  0  0  0  0  0  0  0  0  0  0
    2.4941    1.7941    0.0000 H   0  0  0  0  0  0  0  0  0  0  0  0
    1.9489    1.3120    0.0000 H   0  0  0  0  0  0  0  0  0  0  0  0
    1.7793    2.1022    0.0000 H   0  0  0  0  0  0  0  0  0  0  0  0
    0.8640    1.7014    0.0000 H   0  0  0  0  0  0  0  0  0  0  0  0
    1.0063    0.7124    0.0000 H   0  0  0  0  0  0  0  0  0  0  0  0
    1.6390    0.1649    0.0000 H   0  0  0  0  0  0  0  0  0  0  0  0
    1.6268   -0.3879    0.0000 H   0  0  0  0  0  0  0  0  0  0  0  0
    1.9665   -0.8242    0.0000 H   0  0  0  0  0  0  0  0  0  0  0  0
    0.2455    1.3450    0.0000 H   0  0  0  0  0  0  0  0  0  0  0  0
   -0.8604    0.5859    0.0000 H   0  0  0  0  0  0  0  0  0  0  0  0
   -1.5749   -0.6516    0.0000 H   0  0  0  0  0  0  0  0  0  0  0  0
    0.5686   -1.8891    0.0000 H   0  0  0  0  0  0  0  0  0  0  0  0
    1.3966   -1.4687    0.0000 H   0  0  0  0  0  0  0  0  0  0  0  0
  1  2  1  0  0  0  0
  2  3  1  0  0  0  0
  2  4  1  0  0  0  0
  2  5  1  0  0  0  0
  5  6  1  0  0  0  0
  6  7  1  0  0  0  0
  6  8  1  0  0  0  0
  6  9  1  0  0  0  0
 10  9  4  0  0  0  0
 11 10  4  0  0  0  0
 12 11  4  0  0  0  0
 12 13  1  0  0  0  0
 14 12  4  0  0  0  0
 15 14  4  0  0  0  0
  9 15  4  0  0  0  0
  1 16  1  0  0  0  0
  1 17  1  0  0  0  0
  1 18  1  0  0  0  0
  3 19  1  0  0  0  0
  3 20  1  0  0  0  0
  3 21  1  0  0  0  0
  4 22  1  0  0  0  0
  4 23  1  0  0  0  0
  4 24  1  0  0  0  0
  5 25  1  0  0  0  0
  5 26  1  0  0  0  0
  7 27  1  0  0  0  0
  7 28  1  0  0  0  0
  7 29  1  0  0  0  0
  8 30  1  0  0  0  0
  8 31  1  0  0  0  0
  8 32  1  0  0  0  0
 10 33  1  0  0  0  0
 11 34  1  0  0  0  0
 13 35  1  0  0  0  0
 14 36  1  0  0  0  0
 15 37  1  0  0  0  0
M  END
>  <id_input>
2817

>  <InChIKey>
ISAVYTVYFVQUDY-UHFFFAOYSA-N

>  <substance_name>
4-(2,4,4-trimethylpentan-2-yl)phenol

>  <casrn>
140-66-9

>  <Molecular weight>
206.32388305664062

>  <guideline>
OECD Guideline 404 (Acute Dermal Irritation / Corrosion)

>  <species>
rabbit

>  <type_of_coverage>
semiocclusive

>  <max_duration(hrs)>
4.0

>  <vehicle>
water

>  <edema/ erythema score>
1.175

>  <max_score>
4.0

>  <reversibility>
0.0

>  <Outcome>
0

>  <StandardizerResult>
Remove Explicit Hydrogens (ID: RemoveExplicitH)
Dearomatize (ID: Dearomatize)
Clear Stereo (ID: ClearStereo)
Wedge Clean (ID: WedgeClean)
Mesomerize (ID: Mesomerize)
Tautomerize (ID: Tautomerize)
Aromatize (ID: Aromatize)
Add Explicit Hydrogens (ID: AddExplicitH)
Neutralize (ID: Neutralize)
Clean 2D (ID: Clean2D)


$$$$

  Mrv1812 02121911042D          

 14 13  0  0  0  0            999 V2000
   -1.4289   -0.0000    0.0000 O   0  0  0  0  0  0  0  0  0  0  0  0
   -0.7145    0.4125    0.0000 C   0  0  0  0  0  0  0  0  0  0  0  0
   -0.7145    1.2375    0.0000 O   0  0  0  0  0  0  0  0  0  0  0  0
    0.0000   -0.0000    0.0000 C   0  0  0  0  0  0  0  0  0  0  0  0
    0.7145    0.4125    0.0000 C   0  0  0  0  0  0  0  0  0  0  0  0
    1.4289   -0.0000    0.0000 C   0  0  0  0  0  0  0  0  0  0  0  0
    2.1434    0.4125    0.0000 O   0  0  0  0  0  0  0  0  0  0  0  0
    1.4289   -0.8250    0.0000 O   0  0  0  0  0  0  0  0  0  0  0  0
   -2.1434    0.4125    0.0000 H   0  0  0  0  0  0  0  0  0  0  0  0
   -0.3703   -0.7373    0.0000 H   0  0  0  0  0  0  0  0  0  0  0  0
    0.3703   -0.7373    0.0000 H   0  0  0  0  0  0  0  0  0  0  0  0
    1.0847    1.1497    0.0000 H   0  0  0  0  0  0  0  0  0  0  0  0
    0.3442    1.1497    0.0000 H   0  0  0  0  0  0  0  0  0  0  0  0
    2.8579   -0.0000    0.0000 H   0  0  0  0  0  0  0  0  0  0  0  0
  1  2  1  0  0  0  0
  2  3  2  0  0  0  0
  2  4  1  0  0  0  0
  4  5  1  0  0  0  0
  5  6  1  0  0  0  0
  6  7  1  0  0  0  0
  6  8  2  0  0  0  0
  1  9  1  0  0  0  0
  4 10  1  0  0  0  0
  4 11  1  0  0  0  0
  5 12  1  0  0  0  0
  5 13  1  0  0  0  0
  7 14  1  0  0  0  0
M  END
>  <id_input>
3951

>  <InChIKey>
KDYFGRWQOYBRFD-UHFFFAOYSA-N

>  <substance_name>
butanedioic acid

>  <casrn>
110-15-6

>  <Molecular weight>
118.08804321289062

>  <guideline>
OECD Guideline 404 (Acute Dermal Irritation / Corrosion)

>  <species>
rabbit

>  <type_of_coverage>
semiocclusive

>  <max_duration(hrs)>
4.0

>  <vehicle>
unchanged (no vehicle)

>  <edema/ erythema score>
0.0

>  <max_score>
4.0

>  <reversibility>
0.0

>  <Outcome>
0

>  <StandardizerResult>
Remove Explicit Hydrogens (ID: RemoveExplicitH)
Clear Stereo (ID: ClearStereo)
Wedge Clean (ID: WedgeClean)
Mesomerize (ID: Mesomerize)
Tautomerize (ID: Tautomerize)
Add Explicit Hydrogens (ID: AddExplicitH)
Neutralize (ID: Neutralize)
Clean 2D (ID: Clean2D)


$$$$

  Mrv1812 02121911042D          

 36 36  0  0  0  0            999 V2000
    3.3877    0.7636    0.0000 C   0  0  0  0  0  0  0  0  0  0  0  0
    2.6733    1.1761    0.0000 C   0  0  0  0  0  0  0  0  0  0  0  0
    1.9588    0.7636    0.0000 O   0  0  0  0  0  0  0  0  0  0  0  0
    1.2443    1.1761    0.0000 C   0  0  0  0  0  0  0  0  0  0  0  0
    1.2443    2.0011    0.0000 O   0  0  0  0  0  0  0  0  0  0  0  0
    0.5299    0.7636    0.0000 C   0  0  0  0  0  0  0  0  0  0  0  0
   -0.1846    1.1761    0.0000 C   0  0  0  0  0  0  0  0  0  0  0  0
   -0.8991    0.7636    0.0000 C   0  0  0  0  0  0  0  0  0  0  0  0
   -0.8991   -0.0614    0.0000 C   0  0  0  0  0  0  0  0  0  0  0  0
   -0.1846   -0.4739    0.0000 C   0  0  0  0  0  0  0  0  0  0  0  0
    0.5299   -0.0614    0.0000 C   0  0  0  0  0  0  0  0  0  0  0  0
   -1.6136   -0.4739    0.0000 C   0  0  0  0  0  0  0  0  0  0  0  0
   -2.3280   -0.0614    0.0000 O   0  0  0  0  0  0  0  0  0  0  0  0
   -1.6136   -1.2989    0.0000 O   0  0  0  0  0  0  0  0  0  0  0  0
   -2.3280   -1.7114    0.0000 C   0  0  0  0  0  0  0  0  0  0  0  0
   -2.3280   -2.5364    0.0000 C   0  0  0  0  0  0  0  0  0  0  0  0
    2.9752    0.0492    0.0000 H   0  0  0  0  0  0  0  0  0  0  0  0
    4.1022    0.3511    0.0000 H   0  0  0  0  0  0  0  0  0  0  0  0
    3.8002    1.4781    0.0000 H   0  0  0  0  0  0  0  0  0  0  0  0
    3.0435    1.9134    0.0000 H   0  0  0  0  0  0  0  0  0  0  0  0
    2.3030    1.9134    0.0000 H   0  0  0  0  0  0  0  0  0  0  0  0
    0.5299    1.5886    0.0000 H   0  0  0  0  0  0  0  0  0  0  0  0
   -0.3279    1.9886    0.0000 H   0  0  0  0  0  0  0  0  0  0  0  0
   -0.8166    1.7064    0.0000 H   0  0  0  0  0  0  0  0  0  0  0  0
   -1.6582    1.0867    0.0000 H   0  0  0  0  0  0  0  0  0  0  0  0
   -1.6835    0.5079    0.0000 H   0  0  0  0  0  0  0  0  0  0  0  0
   -0.8991   -0.8864    0.0000 H   0  0  0  0  0  0  0  0  0  0  0  0
   -0.0414   -1.2863    0.0000 H   0  0  0  0  0  0  0  0  0  0  0  0
    0.4474   -1.0042    0.0000 H   0  0  0  0  0  0  0  0  0  0  0  0
    1.2890   -0.3844    0.0000 H   0  0  0  0  0  0  0  0  0  0  0  0
    1.3142    0.1943    0.0000 H   0  0  0  0  0  0  0  0  0  0  0  0
   -2.7814   -1.0221    0.0000 H   0  0  0  0  0  0  0  0  0  0  0  0
   -3.1516   -1.6634    0.0000 H   0  0  0  0  0  0  0  0  0  0  0  0
   -3.1530   -2.5364    0.0000 H   0  0  0  0  0  0  0  0  0  0  0  0
   -2.3280   -3.3614    0.0000 H   0  0  0  0  0  0  0  0  0  0  0  0
   -1.5030   -2.5364    0.0000 H   0  0  0  0  0  0  0  0  0  0  0  0
  1  2  1  0  0  0  0
  2  3  1  0  0  0  0
  3  4  1  0  0  0  0
  4  5  2  0  0  0  0
  4  6  1  0  0  0  0
  7  6  1  0  0  0  0
  8  7  1  0  0  0  0
  9  8  1  0  0  0  0
 10  9  1  0  0  0  0
 11 10  1  0  0  0  0
  9 12  1  0  0  0  0
 12 13  2  0  0  0  0
 12 14  1  0  0  0  0
 14 15  1  0  0  0  0
 15 16  1  0  0  0  0
  6 11  1  0  0  0  0
  1 17  1  0  0  0  0
  1 18  1  0  0  0  0
  1 19  1  0  0  0  0
  2 20  1  0  0  0  0
  2 21  1  0  0  0  0
  6 22  1  0  0  0  0
  7 23  1  0  0  0  0
  7 24  1  0  0  0  0
  8 25  1  0  0  0  0
  8 26  1  0  0  0  0
  9 27  1  0  0  0  0
 10 28  1  0  0  0  0
 10 29  1  0  0  0  0
 11 30  1  0  0  0  0
 11 31  1  0  0  0  0
 15 32  1  0  0  0  0
 15 33  1  0  0  0  0
 16 34  1  0  0  0  0
 16 35  1  0  0  0  0
 16 36  1  0  0  0  0
M  END
>  <id_input>
1182

>  <InChIKey>
KRJHRNUTLDTSKY-UHFFFAOYSA-N

>  <substance_name>
-

>  <casrn>
72903-27-6

>  <Molecular weight>
228.28480529785156

>  <guideline>
EU Method B.4 (Acute Toxicity: Dermal Irritation / Corrosion)

>  <species>
rabbit

>  <type_of_coverage>
semiocclusive

>  <max_duration(hrs)>
4.0

>  <vehicle>
unchanged (no vehicle)

>  <edema/ erythema score>
1.11

>  <max_score>
4.0

>  <reversibility>
0.0

>  <Outcome>
0

>  <StandardizerResult>
Remove Explicit Hydrogens (ID: RemoveExplicitH)
Clear Stereo (ID: ClearStereo)
Wedge Clean (ID: WedgeClean)
Mesomerize (ID: Mesomerize)
Tautomerize (ID: Tautomerize)
Add Explicit Hydrogens (ID: AddExplicitH)
Neutralize (ID: Neutralize)
Clean 2D (ID: Clean2D)


$$$$

  Mrv1812 02121911042D          

 10  9  0  0  0  0            999 V2000
    1.3885   -0.1510    0.0000 O   0  0  0  0  0  0  0  0  0  0  0  0
    0.5635   -0.1510    0.0000 C   0  0  0  0  0  0  0  0  0  0  0  0
    0.1510    0.5635    0.0000 C   0  0  0  0  0  0  0  0  0  0  0  0
   -0.6740    0.5635    0.0000 O   0  0  0  0  0  0  0  0  0  0  0  0
    1.8010   -0.8655    0.0000 H   0  0  0  0  0  0  0  0  0  0  0  0
   -0.1258   -0.6043    0.0000 H   0  0  0  0  0  0  0  0  0  0  0  0
    0.5155   -0.9746    0.0000 H   0  0  0  0  0  0  0  0  0  0  0  0
    0.8403    1.0168    0.0000 H   0  0  0  0  0  0  0  0  0  0  0  0
    0.1990    1.3871    0.0000 H   0  0  0  0  0  0  0  0  0  0  0  0
   -1.0865    1.2780    0.0000 H   0  0  0  0  0  0  0  0  0  0  0  0
  1  2  1  0  0  0  0
  2  3  1  0  0  0  0
  3  4  1  0  0  0  0
  1  5  1  0  0  0  0
  2  6  1  0  0  0  0
  2  7  1  0  0  0  0
  3  8  1  0  0  0  0
  3  9  1  0  0  0  0
  4 10  1  0  0  0  0
M  END
>  <id_input>
3554

>  <InChIKey>
LYCAIKOWRPUZTN-UHFFFAOYSA-N

>  <substance_name>
Poly(oxy-1,2-ethanediyl),????-hydro-?????-hydroxy- Ethane-1,2-diol, ethoxylated

>  <casrn>
25322-68-3

>  <Molecular weight>
62.067840576171875

>  <guideline>
OECD Guideline 404 (Acute Dermal Irritation / Corrosion)

>  <species>
rabbit

>  <type_of_coverage>
occlusive

>  <max_duration(hrs)>
4.0

>  <vehicle>
unchanged (no vehicle)

>  <edema/ erythema score>
0.33

>  <max_score>
3.0

>  <reversibility>
0.0

>  <Outcome>
0

>  <StandardizerResult>
Remove Explicit Hydrogens (ID: RemoveExplicitH)
Clear Stereo (ID: ClearStereo)
Wedge Clean (ID: WedgeClean)
Mesomerize (ID: Mesomerize)
Tautomerize (ID: Tautomerize)
Add Explicit Hydrogens (ID: AddExplicitH)
Neutralize (ID: Neutralize)
Clean 2D (ID: Clean2D)


$$$$

  Mrv1812 02121911042D          

114113  0  0  0  0            999 V2000
   -0.3814    0.6132    0.0000 C   0  0  0  0  0  0  0  0  0  0  0  0
    0.3331    1.0257    0.0000 C   0  0  0  0  0  0  0  0  0  0  0  0
    1.0476    0.6132    0.0000 C   0  0  0  0  0  0  0  0  0  0  0  0
    1.7620    1.0257    0.0000 C   0  0  0  0  0  0  0  0  0  0  0  0
    2.4765    0.6132    0.0000 C   0  0  0  0  0  0  0  0  0  0  0  0
    3.1910    1.0257    0.0000 C   0  0  0  0  0  0  0  0  0  0  0  0
    3.9054    0.6132    0.0000 C   0  0  0  0  0  0  0  0  0  0  0  0
    4.6199    1.0257    0.0000 C   0  0  0  0  0  0  0  0  0  0  0  0
    5.3344    0.6132    0.0000 C   0  0  0  0  0  0  0  0  0  0  0  0
    6.0489    1.0257    0.0000 C   0  0  0  0  0  0  0  0  0  0  0  0
    6.7633    0.6132    0.0000 C   0  0  0  0  0  0  0  0  0  0  0  0
    7.4778    1.0257    0.0000 C   0  0  0  0  0  0  0  0  0  0  0  0
    8.1923    0.6132    0.0000 C   0  0  0  0  0  0  0  0  0  0  0  0
    8.9067    1.0257    0.0000 C   0  0  0  0  0  0  0  0  0  0  0  0
    9.6212    0.6132    0.0000 C   0  0  0  0  0  0  0  0  0  0  0  0
   10.3357    1.0257    0.0000 C   0  0  0  0  0  0  0  0  0  0  0  0
   11.0502    0.6132    0.0000 C   0  0  0  0  0  0  0  0  0  0  0  0
   11.7646    1.0257    0.0000 C   0  0  0  0  0  0  0  0  0  0  0  0
   11.7646    1.8507    0.0000 O   0  0  0  0  0  0  0  0  0  0  0  0
   12.4791    0.6132    0.0000 O   0  0  0  0  0  0  0  0  0  0  0  0
   13.1936    1.0257    0.0000 C   0  0  0  0  0  0  0  0  0  0  0  0
   13.1936    1.8507    0.0000 C   0  0  0  0  0  0  0  0  0  0  0  0
   13.9080    2.2632    0.0000 O   0  0  0  0  0  0  0  0  0  0  0  0
   13.9080    0.6132    0.0000 C   0  0  0  0  0  0  0  0  0  0  0  0
   14.6225    1.0257    0.0000 O   0  0  0  0  0  0  0  0  0  0  0  0
   15.3370    0.6132    0.0000 C   0  0  0  0  0  0  0  0  0  0  0  0
   15.3370   -0.2118    0.0000 O   0  0  0  0  0  0  0  0  0  0  0  0
   16.0514    1.0257    0.0000 C   0  0  0  0  0  0  0  0  0  0  0  0
   16.7659    0.6132    0.0000 C   0  0  0  0  0  0  0  0  0  0  0  0
   17.4804    1.0257    0.0000 C   0  0  0  0  0  0  0  0  0  0  0  0
   18.1949    0.6132    0.0000 C   0  0  0  0  0  0  0  0  0  0  0  0
   18.9093    1.0257    0.0000 C   0  0  0  0  0  0  0  0  0  0  0  0
   19.6238    0.6132    0.0000 C   0  0  0  0  0  0  0  0  0  0  0  0
   20.3383    1.0257    0.0000 C   0  0  0  0  0  0  0  0  0  0  0  0
   21.0527    0.6132    0.0000 C   0  0  0  0  0  0  0  0  0  0  0  0
   21.7672    1.0257    0.0000 C   0  0  0  0  0  0  0  0  0  0  0  0
   22.4817    0.6132    0.0000 C   0  0  0  0  0  0  0  0  0  0  0  0
   23.1962    1.0257    0.0000 C   0  0  0  0  0  0  0  0  0  0  0  0
   23.9106    0.6132    0.0000 C   0  0  0  0  0  0  0  0  0  0  0  0
   24.6251    1.0257    0.0000 C   0  0  0  0  0  0  0  0  0  0  0  0
   25.3396    0.6132    0.0000 C   0  0  0  0  0  0  0  0  0  0  0  0
   26.0540    1.0257    0.0000 C   0  0  0  0  0  0  0  0  0  0  0  0
   -0.7939    1.3277    0.0000 H   0  0  0  0  0  0  0  0  0  0  0  0
   -1.0959    0.2007    0.0000 H   0  0  0  0  0  0  0  0  0  0  0  0
    0.0311   -0.1012    0.0000 H   0  0  0  0  0  0  0  0  0  0  0  0
    0.7033    1.7630    0.0000 H   0  0  0  0  0  0  0  0  0  0  0  0
   -0.0372    1.7630    0.0000 H   0  0  0  0  0  0  0  0  0  0  0  0
    0.6773   -0.1240    0.0000 H   0  0  0  0  0  0  0  0  0  0  0  0
    1.4178   -0.1240    0.0000 H   0  0  0  0  0  0  0  0  0  0  0  0
    2.1323    1.7630    0.0000 H   0  0  0  0  0  0  0  0  0  0  0  0
    1.3918    1.7630    0.0000 H   0  0  0  0  0  0  0  0  0  0  0  0
    2.1062   -0.1240    0.0000 H   0  0  0  0  0  0  0  0  0  0  0  0
    2.8468   -0.1240    0.0000 H   0  0  0  0  0  0  0  0  0  0  0  0
    3.5612    1.7630    0.0000 H   0  0  0  0  0  0  0  0  0  0  0  0
    2.8207    1.7630    0.0000 H   0  0  0  0  0  0  0  0  0  0  0  0
    3.5352   -0.1240    0.0000 H   0  0  0  0  0  0  0  0  0  0  0  0
    4.2757   -0.1240    0.0000 H   0  0  0  0  0  0  0  0  0  0  0  0
    4.9902    1.7630    0.0000 H   0  0  0  0  0  0  0  0  0  0  0  0
    4.2497    1.7630    0.0000 H   0  0  0  0  0  0  0  0  0  0  0  0
    4.9641   -0.1240    0.0000 H   0  0  0  0  0  0  0  0  0  0  0  0
    5.7046   -0.1240    0.0000 H   0  0  0  0  0  0  0  0  0  0  0  0
    6.4191    1.7630    0.0000 H   0  0  0  0  0  0  0  0  0  0  0  0
    5.6786    1.7630    0.0000 H   0  0  0  0  0  0  0  0  0  0  0  0
    6.3931   -0.1240    0.0000 H   0  0  0  0  0  0  0  0  0  0  0  0
    7.1336   -0.1240    0.0000 H   0  0  0  0  0  0  0  0  0  0  0  0
    7.8481    1.7630    0.0000 H   0  0  0  0  0  0  0  0  0  0  0  0
    7.1075    1.7630    0.0000 H   0  0  0  0  0  0  0  0  0  0  0  0
    7.8220   -0.1240    0.0000 H   0  0  0  0  0  0  0  0  0  0  0  0
    8.5625   -0.1240    0.0000 H   0  0  0  0  0  0  0  0  0  0  0  0
    9.2770    1.7630    0.0000 H   0  0  0  0  0  0  0  0  0  0  0  0
    8.5365    1.7630    0.0000 H   0  0  0  0  0  0  0  0  0  0  0  0
    9.2509   -0.1240    0.0000 H   0  0  0  0  0  0  0  0  0  0  0  0
    9.9915   -0.1240    0.0000 H   0  0  0  0  0  0  0  0  0  0  0  0
   10.7059    1.7630    0.0000 H   0  0  0  0  0  0  0  0  0  0  0  0
    9.9654    1.7630    0.0000 H   0  0  0  0  0  0  0  0  0  0  0  0
   10.6799   -0.1240    0.0000 H   0  0  0  0  0  0  0  0  0  0  0  0
   11.4204   -0.1240    0.0000 H   0  0  0  0  0  0  0  0  0  0  0  0
   12.4791    1.4382    0.0000 H   0  0  0  0  0  0  0  0  0  0  0  0
   13.0503    2.6632    0.0000 H   0  0  0  0  0  0  0  0  0  0  0  0
   12.5616    2.3810    0.0000 H   0  0  0  0  0  0  0  0  0  0  0  0
   14.7322    2.2992    0.0000 H   0  0  0  0  0  0  0  0  0  0  0  0
   13.5378   -0.1240    0.0000 H   0  0  0  0  0  0  0  0  0  0  0  0
   14.2783   -0.1240    0.0000 H   0  0  0  0  0  0  0  0  0  0  0  0
   16.4217    1.7630    0.0000 H   0  0  0  0  0  0  0  0  0  0  0  0
   15.6812    1.7630    0.0000 H   0  0  0  0  0  0  0  0  0  0  0  0
   16.3957   -0.1240    0.0000 H   0  0  0  0  0  0  0  0  0  0  0  0
   17.1362   -0.1240    0.0000 H   0  0  0  0  0  0  0  0  0  0  0  0
   17.8506    1.7630    0.0000 H   0  0  0  0  0  0  0  0  0  0  0  0
   17.1101    1.7630    0.0000 H   0  0  0  0  0  0  0  0  0  0  0  0
   17.8246   -0.1240    0.0000 H   0  0  0  0  0  0  0  0  0  0  0  0
   18.5651   -0.1240    0.0000 H   0  0  0  0  0  0  0  0  0  0  0  0
   19.2796    1.7630    0.0000 H   0  0  0  0  0  0  0  0  0  0  0  0
   18.5391    1.7630    0.0000 H   0  0  0  0  0  0  0  0  0  0  0  0
   19.2535   -0.1240    0.0000 H   0  0  0  0  0  0  0  0  0  0  0  0
   19.9941   -0.1240    0.0000 H   0  0  0  0  0  0  0  0  0  0  0  0
   20.7085    1.7630    0.0000 H   0  0  0  0  0  0  0  0  0  0  0  0
   19.9680    1.7630    0.0000 H   0  0  0  0  0  0  0  0  0  0  0  0
   20.6825   -0.1240    0.0000 H   0  0  0  0  0  0  0  0  0  0  0  0
   21.4230   -0.1240    0.0000 H   0  0  0  0  0  0  0  0  0  0  0  0
   22.1375    1.7630    0.0000 H   0  0  0  0  0  0  0  0  0  0  0  0
   21.3970    1.7630    0.0000 H   0  0  0  0  0  0  0  0  0  0  0  0
   22.1114   -0.1240    0.0000 H   0  0  0  0  0  0  0  0  0  0  0  0
   22.8519   -0.1240    0.0000 H   0  0  0  0  0  0  0  0  0  0  0  0
   23.5664    1.7630    0.0000 H   0  0  0  0  0  0  0  0  0  0  0  0
   22.8259    1.7630    0.0000 H   0  0  0  0  0  0  0  0  0  0  0  0
   23.5404   -0.1240    0.0000 H   0  0  0  0  0  0  0  0  0  0  0  0
   24.2809   -0.1240    0.0000 H   0  0  0  0  0  0  0  0  0  0  0  0
   24.9954    1.7630    0.0000 H   0  0  0  0  0  0  0  0  0  0  0  0
   24.2548    1.7630    0.0000 H   0  0  0  0  0  0  0  0  0  0  0  0
   24.9693   -0.1240    0.0000 H   0  0  0  0  0  0  0  0  0  0  0  0
   25.7098   -0.1240    0.0000 H   0  0  0  0  0  0  0  0  0  0  0  0
   26.4665    0.3113    0.0000 H   0  0  0  0  0  0  0  0  0  0  0  0
   26.7685    1.4382    0.0000 H   0  0  0  0  0  0  0  0  0  0  0  0
   25.6415    1.7402    0.0000 H   0  0  0  0  0  0  0  0  0  0  0  0
  1  2  1  0  0  0  0
  2  3  1  0  0  0  0
  3  4  1  0  0  0  0
  4  5  1  0  0  0  0
  5  6  1  0  0  0  0
  6  7  1  0  0  0  0
  7  8  1  0  0  0  0
  8  9  1  0  0  0  0
  9 10  1  0  0  0  0
 10 11  1  0  0  0  0
 11 12  1  0  0  0  0
 12 13  1  0  0  0  0
 13 14  1  0  0  0  0
 14 15  1  0  0  0  0
 15 16  1  0  0  0  0
 16 17  1  0  0  0  0
 17 18  1  0  0  0  0
 18 19  2  0  0  0  0
 18 20  1  0  0  0  0
 20 21  1  0  0  0  0
 21 22  1  0  0  0  0
 22 23  1  0  0  0  0
 21 24  1  0  0  0  0
 24 25  1  0  0  0  0
 25 26  1  0  0  0  0
 26 27  2  0  0  0  0
 26 28  1  0  0  0  0
 28 29  1  0  0  0  0
 29 30  1  0  0  0  0
 30 31  1  0  0  0  0
 31 32  1  0  0  0  0
 32 33  1  0  0  0  0
 33 34  1  0  0  0  0
 34 35  1  0  0  0  0
 35 36  1  0  0  0  0
 36 37  1  0  0  0  0
 37 38  1  0  0  0  0
 38 39  1  0  0  0  0
 39 40  1  0  0  0  0
 40 41  1  0  0  0  0
 41 42  1  0  0  0  0
  1 43  1  0  0  0  0
  1 44  1  0  0  0  0
  1 45  1  0  0  0  0
  2 46  1  0  0  0  0
  2 47  1  0  0  0  0
  3 48  1  0  0  0  0
  3 49  1  0  0  0  0
  4 50  1  0  0  0  0
  4 51  1  0  0  0  0
  5 52  1  0  0  0  0
  5 53  1  0  0  0  0
  6 54  1  0  0  0  0
  6 55  1  0  0  0  0
  7 56  1  0  0  0  0
  7 57  1  0  0  0  0
  8 58  1  0  0  0  0
  8 59  1  0  0  0  0
  9 60  1  0  0  0  0
  9 61  1  0  0  0  0
 10 62  1  0  0  0  0
 10 63  1  0  0  0  0
 11 64  1  0  0  0  0
 11 65  1  0  0  0  0
 12 66  1  0  0  0  0
 12 67  1  0  0  0  0
 13 68  1  0  0  0  0
 13 69  1  0  0  0  0
 14 70  1  0  0  0  0
 14 71  1  0  0  0  0
 15 72  1  0  0  0  0
 15 73  1  0  0  0  0
 16 74  1  0  0  0  0
 16 75  1  0  0  0  0
 17 76  1  0  0  0  0
 17 77  1  0  0  0  0
 21 78  1  0  0  0  0
 22 79  1  0  0  0  0
 22 80  1  0  0  0  0
 23 81  1  0  0  0  0
 24 82  1  0  0  0  0
 24 83  1  0  0  0  0
 28 84  1  0  0  0  0
 28 85  1  0  0  0  0
 29 86  1  0  0  0  0
 29 87  1  0  0  0  0
 30 88  1  0  0  0  0
 30 89  1  0  0  0  0
 31 90  1  0  0  0  0
 31 91  1  0  0  0  0
 32 92  1  0  0  0  0
 32 93  1  0  0  0  0
 33 94  1  0  0  0  0
 33 95  1  0  0  0  0
 34 96  1  0  0  0  0
 34 97  1  0  0  0  0
 35 98  1  0  0  0  0
 35 99  1  0  0  0  0
 36100  1  0  0  0  0
 36101  1  0  0  0  0
 37102  1  0  0  0  0
 37103  1  0  0  0  0
 38104  1  0  0  0  0
 38105  1  0  0  0  0
 39106  1  0  0  0  0
 39107  1  0  0  0  0
 40108  1  0  0  0  0
 40109  1  0  0  0  0
 41110  1  0  0  0  0
 41111  1  0  0  0  0
 42112  1  0  0  0  0
 42113  1  0  0  0  0
 42114  1  0  0  0  0
M  END
>  <id_input>
3330

>  <InChIKey>
ONCLVQFEAFTXMN-UHFFFAOYSA-N

>  <substance_name>
Glycerides, C16-18 mono- and di-

>  <casrn>
85251-77-0

>  <Molecular weight>
596.964599609375

>  <guideline>
OECD Guideline 404 (Acute Dermal Irritation / Corrosion)

>  <species>
rabbit

>  <type_of_coverage>
semiocclusive

>  <max_duration(hrs)>
4.0

>  <vehicle>
other: sterile Codex liquid paraffin

>  <edema/ erythema score>
0.6

>  <max_score>
4.0

>  <reversibility>
0.0

>  <Outcome>
0

>  <StandardizerResult>
Remove Explicit Hydrogens (ID: RemoveExplicitH)
Clear Stereo (ID: ClearStereo)
Wedge Clean (ID: WedgeClean)
Mesomerize (ID: Mesomerize)
Tautomerize (ID: Tautomerize)
Add Explicit Hydrogens (ID: AddExplicitH)
Neutralize (ID: Neutralize)
Clean 2D (ID: Clean2D)


$$$$

  Mrv1812 02121911042D          

 49 49  0  0  0  0            999 V2000
    2.2024    1.2868    0.0000 C   0  0  0  0  0  0  0  0  0  0  0  0
    1.4879    0.8743    0.0000 C   0  0  0  0  0  0  0  0  0  0  0  0
    1.0754    1.5888    0.0000 C   0  0  0  0  0  0  0  0  0  0  0  0
    1.9004    0.1598    0.0000 C   0  0  0  0  0  0  0  0  0  0  0  0
    0.7735    0.4618    0.0000 C   0  0  0  0  0  0  0  0  0  0  0  0
    0.0590    0.8743    0.0000 C   0  0  0  0  0  0  0  0  0  0  0  0
   -0.6555    0.4618    0.0000 C   0  0  0  0  0  0  0  0  0  0  0  0
   -0.6555   -0.3632    0.0000 C   0  0  0  0  0  0  0  0  0  0  0  0
   -1.3699   -0.7757    0.0000 O   0  0  0  0  0  0  0  0  0  0  0  0
    0.0590   -0.7757    0.0000 C   0  0  0  0  0  0  0  0  0  0  0  0
    0.7735   -0.3632    0.0000 C   0  0  0  0  0  0  0  0  0  0  0  0
    0.0590   -1.6007    0.0000 C   0  0  0  0  0  0  0  0  0  0  0  0
    0.0590   -2.4257    0.0000 C   0  0  0  0  0  0  0  0  0  0  0  0
    0.8840   -1.6007    0.0000 C   0  0  0  0  0  0  0  0  0  0  0  0
   -0.7660   -1.6007    0.0000 C   0  0  0  0  0  0  0  0  0  0  0  0
   -1.3699    0.8743    0.0000 C   0  0  0  0  0  0  0  0  0  0  0  0
   -2.0844    1.2868    0.0000 C   0  0  0  0  0  0  0  0  0  0  0  0
   -1.7824    0.1598    0.0000 C   0  0  0  0  0  0  0  0  0  0  0  0
   -0.9574    1.5888    0.0000 C   0  0  0  0  0  0  0  0  0  0  0  0
    2.6149    0.5723    0.0000 H   0  0  0  0  0  0  0  0  0  0  0  0
    2.9169    1.6993    0.0000 H   0  0  0  0  0  0  0  0  0  0  0  0
    1.7899    2.0013    0.0000 H   0  0  0  0  0  0  0  0  0  0  0  0
    0.9678    2.4067    0.0000 H   0  0  0  0  0  0  0  0  0  0  0  0
    0.2786    1.8023    0.0000 H   0  0  0  0  0  0  0  0  0  0  0  0
    0.5732    0.9343    0.0000 H   0  0  0  0  0  0  0  0  0  0  0  0
    1.0825    0.0522    0.0000 H   0  0  0  0  0  0  0  0  0  0  0  0
    1.6869   -0.6371    0.0000 H   0  0  0  0  0  0  0  0  0  0  0  0
    2.5550   -0.3424    0.0000 H   0  0  0  0  0  0  0  0  0  0  0  0
   -0.6028    1.3668    0.0000 H   0  0  0  0  0  0  0  0  0  0  0  0
   -2.0844   -0.3632    0.0000 H   0  0  0  0  0  0  0  0  0  0  0  0
    0.8691   -1.1826    0.0000 H   0  0  0  0  0  0  0  0  0  0  0  0
   -0.7660   -2.4257    0.0000 H   0  0  0  0  0  0  0  0  0  0  0  0
    0.0590   -3.2507    0.0000 H   0  0  0  0  0  0  0  0  0  0  0  0
    0.8840   -2.4257    0.0000 H   0  0  0  0  0  0  0  0  0  0  0  0
    1.4725   -2.1788    0.0000 H   0  0  0  0  0  0  0  0  0  0  0  0
    1.7089   -1.5860    0.0000 H   0  0  0  0  0  0  0  0  0  0  0  0
    1.4516   -1.0019    0.0000 H   0  0  0  0  0  0  0  0  0  0  0  0
   -0.4503   -0.8385    0.0000 H   0  0  0  0  0  0  0  0  0  0  0  0
   -1.3494   -1.0173    0.0000 H   0  0  0  0  0  0  0  0  0  0  0  0
   -1.5282   -1.9164    0.0000 H   0  0  0  0  0  0  0  0  0  0  0  0
   -1.6719    2.0013    0.0000 H   0  0  0  0  0  0  0  0  0  0  0  0
   -2.7989    1.6993    0.0000 H   0  0  0  0  0  0  0  0  0  0  0  0
   -2.4969    0.5723    0.0000 H   0  0  0  0  0  0  0  0  0  0  0  0
   -1.2521   -0.4722    0.0000 H   0  0  0  0  0  0  0  0  0  0  0  0
   -0.9700    0.0166    0.0000 H   0  0  0  0  0  0  0  0  0  0  0  0
   -2.5793   -0.0537    0.0000 H   0  0  0  0  0  0  0  0  0  0  0  0
   -0.1551    1.7809    0.0000 H   0  0  0  0  0  0  0  0  0  0  0  0
   -0.5323    2.2958    0.0000 H   0  0  0  0  0  0  0  0  0  0  0  0
   -1.1638    2.3875    0.0000 H   0  0  0  0  0  0  0  0  0  0  0  0
  1  2  1  0  0  0  0
  2  3  1  0  0  0  0
  2  4  1  0  0  0  0
  2  5  1  0  0  0  0
  6  5  4  0  0  0  0
  7  6  4  0  0  0  0
  8  7  4  0  0  0  0
  8  9  1  0  0  0  0
 10  8  4  0  0  0  0
 11 10  4  0  0  0  0
 10 12  1  0  0  0  0
 12 13  1  0  0  0  0
 12 14  1  0  0  0  0
 12 15  1  0  0  0  0
  7 16  1  0  0  0  0
 16 17  1  0  0  0  0
 16 18  1  0  0  0  0
 16 19  1  0  0  0  0
  5 11  4  0  0  0  0
  1 20  1  0  0  0  0
  1 21  1  0  0  0  0
  1 22  1  0  0  0  0
  3 23  1  0  0  0  0
  3 24  1  0  0  0  0
  3 25  1  0  0  0  0
  4 26  1  0  0  0  0
  4 27  1  0  0  0  0
  4 28  1  0  0  0  0
  6 29  1  0  0  0  0
  9 30  1  0  0  0  0
 11 31  1  0  0  0  0
 13 32  1  0  0  0  0
 13 33  1  0  0  0  0
 13 34  1  0  0  0  0
 14 35  1  0  0  0  0
 14 36  1  0  0  0  0
 14 37  1  0  0  0  0
 15 38  1  0  0  0  0
 15 39  1  0  0  0  0
 15 40  1  0  0  0  0
 17 41  1  0  0  0  0
 17 42  1  0  0  0  0
 17 43  1  0  0  0  0
 18 44  1  0  0  0  0
 18 45  1  0  0  0  0
 18 46  1  0  0  0  0
 19 47  1  0  0  0  0
 19 48  1  0  0  0  0
 19 49  1  0  0  0  0
M  END
>  <id_input>
2111

>  <InChIKey>
PFEFOYRSMXVNEL-UHFFFAOYSA-N

>  <substance_name>
2,4,6-tri-tert-butylphenol

>  <casrn>
732-26-3

>  <Molecular weight>
262.4302062988281

>  <guideline>
OECD Guideline 404 (Acute Dermal Irritation / Corrosion)

>  <species>
rabbit

>  <type_of_coverage>
semiocclusive

>  <max_duration(hrs)>
4.0

>  <vehicle>
other: The test material was moistened with distilled water

>  <edema/ erythema score>
0.22

>  <max_score>
4.0

>  <reversibility>
0.0

>  <Outcome>
0

>  <StandardizerResult>
Remove Explicit Hydrogens (ID: RemoveExplicitH)
Dearomatize (ID: Dearomatize)
Clear Stereo (ID: ClearStereo)
Wedge Clean (ID: WedgeClean)
Mesomerize (ID: Mesomerize)
Tautomerize (ID: Tautomerize)
Aromatize (ID: Aromatize)
Add Explicit Hydrogens (ID: AddExplicitH)
Neutralize (ID: Neutralize)
Clean 2D (ID: Clean2D)


$$$$

  Mrv1812 02121911042D          

  9  8  0  0  0  0            999 V2000
    1.7105    1.2031    0.0000 F   0  0  0  0  0  0  0  0  0  0  0  0
    1.2980    0.4886    0.0000 C   0  0  0  0  0  0  0  0  0  0  0  0
    0.5835    0.9011    0.0000 F   0  0  0  0  0  0  0  0  0  0  0  0
    2.0125    0.0761    0.0000 F   0  0  0  0  0  0  0  0  0  0  0  0
    0.8855   -0.2259    0.0000 C   0  0  0  0  0  0  0  0  0  0  0  0
    1.2980   -0.9403    0.0000 Br  0  0  0  0  0  0  0  0  0  0  0  0
    0.0605   -0.2259    0.0000 C   0  0  0  0  0  0  0  0  0  0  0  0
   -0.3520    0.4886    0.0000 H   0  0  0  0  0  0  0  0  0  0  0  0
   -0.3520   -0.9403    0.0000 H   0  0  0  0  0  0  0  0  0  0  0  0
  1  2  1  0  0  0  0
  2  3  1  0  0  0  0
  2  4  1  0  0  0  0
  2  5  1  0  0  0  0
  5  6  1  0  0  0  0
  5  7  2  0  0  0  0
  7  8  1  0  0  0  0
  7  9  1  0  0  0  0
M  END
>  <id_input>
2410

>  <InChIKey>
QKBKGNDTLQFSEU-UHFFFAOYSA-N

>  <substance_name>
2-bromo-3,3,3-trifluoroprop-1-ene

>  <casrn>
1514-82-5

>  <Molecular weight>
174.9471893310547

>  <guideline>
EU Method B.4 (Acute Toxicity: Dermal Irritation / Corrosion)

>  <species>
rabbit

>  <type_of_coverage>
occlusive

>  <max_duration(hrs)>
4.0

>  <vehicle>
unchanged (no vehicle)

>  <edema/ erythema score>
0.0

>  <max_score>
4.0

>  <reversibility>
0.0

>  <Outcome>
0

>  <StandardizerResult>
Remove Explicit Hydrogens (ID: RemoveExplicitH)
Clear Stereo (ID: ClearStereo)
Wedge Clean (ID: WedgeClean)
Mesomerize (ID: Mesomerize)
Tautomerize (ID: Tautomerize)
Add Explicit Hydrogens (ID: AddExplicitH)
Neutralize (ID: Neutralize)
Clean 2D (ID: Clean2D)


$$$$

  Mrv1812 02121911042D          

 22 21  0  0  0  0            999 V2000
    0.8470   -1.1627    0.0000 C   0  0  0  0  0  0  0  0  0  0  0  0
    0.8470   -0.3377    0.0000 C   0  0  0  0  0  0  0  0  0  0  0  0
    0.1326    0.0748    0.0000 O   0  0  0  0  0  0  0  0  0  0  0  0
    1.5615    0.0748    0.0000 C   0  0  0  0  0  0  0  0  0  0  0  0
    1.5615    0.8998    0.0000 C   0  0  0  0  0  0  0  0  0  0  0  0
    1.5615    1.7248    0.0000 C   0  0  0  0  0  0  0  0  0  0  0  0
    2.3865    0.8998    0.0000 C   0  0  0  0  0  0  0  0  0  0  0  0
    0.7365    0.8998    0.0000 O   0  0  0  0  0  0  0  0  0  0  0  0
    0.0220   -1.1627    0.0000 H   0  0  0  0  0  0  0  0  0  0  0  0
    0.8470   -1.9877    0.0000 H   0  0  0  0  0  0  0  0  0  0  0  0
    1.6720   -1.1627    0.0000 H   0  0  0  0  0  0  0  0  0  0  0  0
    0.1326   -0.7502    0.0000 H   0  0  0  0  0  0  0  0  0  0  0  0
   -0.2799    0.7893    0.0000 H   0  0  0  0  0  0  0  0  0  0  0  0
    2.0149   -0.6144    0.0000 H   0  0  0  0  0  0  0  0  0  0  0  0
    2.3851    0.0269    0.0000 H   0  0  0  0  0  0  0  0  0  0  0  0
    2.3865    1.7248    0.0000 H   0  0  0  0  0  0  0  0  0  0  0  0
    1.5615    2.5498    0.0000 H   0  0  0  0  0  0  0  0  0  0  0  0
    0.7365    1.7248    0.0000 H   0  0  0  0  0  0  0  0  0  0  0  0
    2.9692    0.3158    0.0000 H   0  0  0  0  0  0  0  0  0  0  0  0
    3.2115    0.8992    0.0000 H   0  0  0  0  0  0  0  0  0  0  0  0
    2.9701    1.4830    0.0000 H   0  0  0  0  0  0  0  0  0  0  0  0
    0.1531    0.3165    0.0000 H   0  0  0  0  0  0  0  0  0  0  0  0
  1  2  1  0  0  0  0
  2  3  1  0  0  0  0
  2  4  1  0  0  0  0
  4  5  1  0  0  0  0
  5  6  1  0  0  0  0
  5  7  1  0  0  0  0
  5  8  1  0  0  0  0
  1  9  1  0  0  0  0
  1 10  1  0  0  0  0
  1 11  1  0  0  0  0
  2 12  1  0  0  0  0
  3 13  1  0  0  0  0
  4 14  1  0  0  0  0
  4 15  1  0  0  0  0
  6 16  1  0  0  0  0
  6 17  1  0  0  0  0
  6 18  1  0  0  0  0
  7 19  1  0  0  0  0
  7 20  1  0  0  0  0
  7 21  1  0  0  0  0
  8 22  1  0  0  0  0
M  END
>  <id_input>
2560

>  <InChIKey>
SVTBMSDMJJWYQN-UHFFFAOYSA-N

>  <substance_name>
2-methylpentane-2,4-diol

>  <casrn>
107-41-5

>  <Molecular weight>
118.17416381835938

>  <guideline>
OECD Guideline 404 (Acute Dermal Irritation / Corrosion)

>  <species>
rabbit

>  <type_of_coverage>
semiocclusive

>  <max_duration(hrs)>
4.0

>  <vehicle>
unchanged (no vehicle)

>  <edema/ erythema score>
0.443333333333333

>  <max_score>
4.0

>  <reversibility>
0.0

>  <Outcome>
0

>  <StandardizerResult>
Remove Explicit Hydrogens (ID: RemoveExplicitH)
Clear Stereo (ID: ClearStereo)
Wedge Clean (ID: WedgeClean)
Mesomerize (ID: Mesomerize)
Tautomerize (ID: Tautomerize)
Add Explicit Hydrogens (ID: AddExplicitH)
Neutralize (ID: Neutralize)
Clean 2D (ID: Clean2D)


$$$$

  Mrv1812 02121911042D          

 83 82  0  0  0  0            999 V2000
   -2.5614    0.0615    0.0000 C   0  0  0  0  0  0  0  0  0  0  0  0
   -1.7364    0.0615    0.0000 C   0  0  0  0  0  0  0  0  0  0  0  0
   -1.3239   -0.6530    0.0000 C   0  0  0  0  0  0  0  0  0  0  0  0
   -0.4989   -0.6530    0.0000 C   0  0  0  0  0  0  0  0  0  0  0  0
   -0.0864   -1.3675    0.0000 C   0  0  0  0  0  0  0  0  0  0  0  0
    0.7386   -1.3675    0.0000 C   0  0  0  0  0  0  0  0  0  0  0  0
    1.1511   -2.0819    0.0000 C   0  0  0  0  0  0  0  0  0  0  0  0
    0.7386   -2.7964    0.0000 O   0  0  0  0  0  0  0  0  0  0  0  0
    1.9761   -2.0819    0.0000 O   0  0  0  0  0  0  0  0  0  0  0  0
    2.3886   -2.7964    0.0000 C   0  0  0  0  0  0  0  0  0  0  0  0
    3.2136   -2.7964    0.0000 C   0  0  0  0  0  0  0  0  0  0  0  0
    3.2136   -3.6214    0.0000 C   0  0  0  0  0  0  0  0  0  0  0  0
    3.9281   -4.0339    0.0000 C   0  0  0  0  0  0  0  0  0  0  0  0
    4.0386   -2.7964    0.0000 C   0  0  0  0  0  0  0  0  0  0  0  0
    4.4511   -3.5109    0.0000 O   0  0  0  0  0  0  0  0  0  0  0  0
    5.2761   -3.5109    0.0000 C   0  0  0  0  0  0  0  0  0  0  0  0
    5.6886   -2.7964    0.0000 O   0  0  0  0  0  0  0  0  0  0  0  0
    5.6886   -4.2254    0.0000 C   0  0  0  0  0  0  0  0  0  0  0  0
    6.5136   -4.2254    0.0000 C   0  0  0  0  0  0  0  0  0  0  0  0
    6.9261   -4.9398    0.0000 C   0  0  0  0  0  0  0  0  0  0  0  0
    7.7511   -4.9398    0.0000 C   0  0  0  0  0  0  0  0  0  0  0  0
    8.1636   -5.6543    0.0000 C   0  0  0  0  0  0  0  0  0  0  0  0
    8.9886   -5.6543    0.0000 C   0  0  0  0  0  0  0  0  0  0  0  0
    3.2136   -1.9714    0.0000 C   0  0  0  0  0  0  0  0  0  0  0  0
    3.9281   -1.5589    0.0000 O   0  0  0  0  0  0  0  0  0  0  0  0
    4.6426   -1.9714    0.0000 C   0  0  0  0  0  0  0  0  0  0  0  0
    4.6426   -2.7964    0.0000 O   0  0  0  0  0  0  0  0  0  0  0  0
    5.3570   -1.5589    0.0000 C   0  0  0  0  0  0  0  0  0  0  0  0
    6.0715   -1.9714    0.0000 C   0  0  0  0  0  0  0  0  0  0  0  0
    6.7860   -1.5589    0.0000 C   0  0  0  0  0  0  0  0  0  0  0  0
    7.5005   -1.9714    0.0000 C   0  0  0  0  0  0  0  0  0  0  0  0
    8.2149   -1.5589    0.0000 C   0  0  0  0  0  0  0  0  0  0  0  0
    8.9294   -1.9714    0.0000 C   0  0  0  0  0  0  0  0  0  0  0  0
   -2.5614    0.8865    0.0000 H   0  0  0  0  0  0  0  0  0  0  0  0
   -3.3864    0.0615    0.0000 H   0  0  0  0  0  0  0  0  0  0  0  0
   -2.5614   -0.7635    0.0000 H   0  0  0  0  0  0  0  0  0  0  0  0
   -1.0471    0.5148    0.0000 H   0  0  0  0  0  0  0  0  0  0  0  0
   -1.6884    0.8851    0.0000 H   0  0  0  0  0  0  0  0  0  0  0  0
   -2.0131   -1.1063    0.0000 H   0  0  0  0  0  0  0  0  0  0  0  0
   -1.3718   -1.4766    0.0000 H   0  0  0  0  0  0  0  0  0  0  0  0
    0.1904   -0.1997    0.0000 H   0  0  0  0  0  0  0  0  0  0  0  0
   -0.4509    0.1706    0.0000 H   0  0  0  0  0  0  0  0  0  0  0  0
   -0.7756   -1.8208    0.0000 H   0  0  0  0  0  0  0  0  0  0  0  0
   -0.1343   -2.1911    0.0000 H   0  0  0  0  0  0  0  0  0  0  0  0
    1.4279   -0.9141    0.0000 H   0  0  0  0  0  0  0  0  0  0  0  0
    0.7866   -0.5439    0.0000 H   0  0  0  0  0  0  0  0  0  0  0  0
    1.6994   -3.2498    0.0000 H   0  0  0  0  0  0  0  0  0  0  0  0
    2.3407   -3.6200    0.0000 H   0  0  0  0  0  0  0  0  0  0  0  0
    2.9995   -4.4181    0.0000 H   0  0  0  0  0  0  0  0  0  0  0  0
    3.9281   -3.2089    0.0000 H   0  0  0  0  0  0  0  0  0  0  0  0
    3.2421   -4.4923    0.0000 H   0  0  0  0  0  0  0  0  0  0  0  0
    4.0358   -4.8519    0.0000 H   0  0  0  0  0  0  0  0  0  0  0  0
    4.7093   -4.2991    0.0000 H   0  0  0  0  0  0  0  0  0  0  0  0
    4.3208   -2.0212    0.0000 H   0  0  0  0  0  0  0  0  0  0  0  0
    3.7565   -2.0212    0.0000 H   0  0  0  0  0  0  0  0  0  0  0  0
    4.9994   -4.6787    0.0000 H   0  0  0  0  0  0  0  0  0  0  0  0
    5.6407   -5.0490    0.0000 H   0  0  0  0  0  0  0  0  0  0  0  0
    7.2029   -3.7720    0.0000 H   0  0  0  0  0  0  0  0  0  0  0  0
    6.5616   -3.4017    0.0000 H   0  0  0  0  0  0  0  0  0  0  0  0
    6.2369   -5.3932    0.0000 H   0  0  0  0  0  0  0  0  0  0  0  0
    6.8782   -5.7634    0.0000 H   0  0  0  0  0  0  0  0  0  0  0  0
    8.4404   -4.4865    0.0000 H   0  0  0  0  0  0  0  0  0  0  0  0
    7.7991   -4.1162    0.0000 H   0  0  0  0  0  0  0  0  0  0  0  0
    7.4744   -6.1076    0.0000 H   0  0  0  0  0  0  0  0  0  0  0  0
    8.1157   -6.4779    0.0000 H   0  0  0  0  0  0  0  0  0  0  0  0
    8.9886   -6.4793    0.0000 H   0  0  0  0  0  0  0  0  0  0  0  0
    9.8136   -5.6543    0.0000 H   0  0  0  0  0  0  0  0  0  0  0  0
    8.9886   -4.8293    0.0000 H   0  0  0  0  0  0  0  0  0  0  0  0
    2.7603   -1.2821    0.0000 H   0  0  0  0  0  0  0  0  0  0  0  0
    2.3900   -1.9234    0.0000 H   0  0  0  0  0  0  0  0  0  0  0  0
    5.7273   -0.8217    0.0000 H   0  0  0  0  0  0  0  0  0  0  0  0
    4.9868   -0.8217    0.0000 H   0  0  0  0  0  0  0  0  0  0  0  0
    6.6803   -2.5282    0.0000 H   0  0  0  0  0  0  0  0  0  0  0  0
    6.0715   -1.1464    0.0000 H   0  0  0  0  0  0  0  0  0  0  0  0
    7.4180   -1.0286    0.0000 H   0  0  0  0  0  0  0  0  0  0  0  0
    6.9292   -0.7464    0.0000 H   0  0  0  0  0  0  0  0  0  0  0  0
    7.1302   -2.7087    0.0000 H   0  0  0  0  0  0  0  0  0  0  0  0
    7.8707   -2.7087    0.0000 H   0  0  0  0  0  0  0  0  0  0  0  0
    8.9380   -1.1616    0.0000 H   0  0  0  0  0  0  0  0  0  0  0  0
    8.2499   -0.7347    0.0000 H   0  0  0  0  0  0  0  0  0  0  0  0
    8.3445   -2.5532    0.0000 H   0  0  0  0  0  0  0  0  0  0  0  0
    9.3381   -2.6881    0.0000 H   0  0  0  0  0  0  0  0  0  0  0  0
    9.7280   -1.7642    0.0000 H   0  0  0  0  0  0  0  0  0  0  0  0
  1  2  1  0  0  0  0
  2  3  1  0  0  0  0
  3  4  1  0  0  0  0
  4  5  1  0  0  0  0
  5  6  1  0  0  0  0
  6  7  1  0  0  0  0
  7  8  2  0  0  0  0
  7  9  1  0  0  0  0
  9 10  1  0  0  0  0
 10 11  1  0  0  0  0
 11 12  1  0  0  0  0
 12 13  1  0  0  0  0
 11 14  1  0  0  0  0
 14 15  1  0  0  0  0
 15 16  1  0  0  0  0
 16 17  2  0  0  0  0
 16 18  1  0  0  0  0
 18 19  1  0  0  0  0
 19 20  1  0  0  0  0
 20 21  1  0  0  0  0
 21 22  1  0  0  0  0
 22 23  1  0  0  0  0
 11 24  1  0  0  0  0
 24 25  1  0  0  0  0
 25 26  1  0  0  0  0
 26 27  2  0  0  0  0
 26 28  1  0  0  0  0
 28 29  1  0  0  0  0
 29 30  1  0  0  0  0
 30 31  1  0  0  0  0
 31 32  1  0  0  0  0
 32 33  1  0  0  0  0
  1 34  1  0  0  0  0
  1 35  1  0  0  0  0
  1 36  1  0  0  0  0
  2 37  1  0  0  0  0
  2 38  1  0  0  0  0
  3 39  1  0  0  0  0
  3 40  1  0  0  0  0
  4 41  1  0  0  0  0
  4 42  1  0  0  0  0
  5 43  1  0  0  0  0
  5 44  1  0  0  0  0
  6 45  1  0  0  0  0
  6 46  1  0  0  0  0
 10 47  1  0  0  0  0
 10 48  1  0  0  0  0
 12 49  1  0  0  0  0
 12 50  1  0  0  0  0
 13 51  1  0  0  0  0
 13 52  1  0  0  0  0
 13 53  1  0  0  0  0
 14 54  1  0  0  0  0
 14 55  1  0  0  0  0
 18 56  1  0  0  0  0
 18 57  1  0  0  0  0
 19 58  1  0  0  0  0
 19 59  1  0  0  0  0
 20 60  1  0  0  0  0
 20 61  1  0  0  0  0
 21 62  1  0  0  0  0
 21 63  1  0  0  0  0
 22 64  1  0  0  0  0
 22 65  1  0  0  0  0
 23 66  1  0  0  0  0
 23 67  1  0  0  0  0
 23 68  1  0  0  0  0
 24 69  1  0  0  0  0
 24 70  1  0  0  0  0
 28 71  1  0  0  0  0
 28 72  1  0  0  0  0
 29 73  1  0  0  0  0
 29 74  1  0  0  0  0
 30 75  1  0  0  0  0
 30 76  1  0  0  0  0
 31 77  1  0  0  0  0
 31 78  1  0  0  0  0
 32 79  1  0  0  0  0
 32 80  1  0  0  0  0
 33 81  1  0  0  0  0
 33 82  1  0  0  0  0
 33 83  1  0  0  0  0
M  END
>  <id_input>
2093

>  <InChIKey>
UQJDVLPHTXQTRP-UHFFFAOYSA-N

>  <substance_name>
2,2-bis[(heptanoyloxy)methyl]butyl heptanoate (non-preferred name)

>  <casrn>
78-16-0

>  <Molecular weight>
470.68231201171875

>  <guideline>
EU Method B.4 (Acute Toxicity: Dermal Irritation / Corrosion)

>  <species>
rabbit

>  <type_of_coverage>
semiocclusive

>  <max_duration(hrs)>
4.0

>  <vehicle>
unchanged (no vehicle)

>  <edema/ erythema score>
0.44

>  <max_score>
4.0

>  <reversibility>
0.0

>  <Outcome>
0

>  <StandardizerResult>
Remove Explicit Hydrogens (ID: RemoveExplicitH)
Clear Stereo (ID: ClearStereo)
Wedge Clean (ID: WedgeClean)
Mesomerize (ID: Mesomerize)
Tautomerize (ID: Tautomerize)
Add Explicit Hydrogens (ID: AddExplicitH)
Neutralize (ID: Neutralize)
Clean 2D (ID: Clean2D)


$$$$

  Mrv1812 02121911042D          

 11 10  0  0  0  0            999 V2000
    0.7868    1.1618    0.0000 C   0  0  0  0  0  0  0  0  0  0  0  0
    1.1993    0.4473    0.0000 N   0  0  0  0  0  0  0  0  0  0  0  0
    0.7868   -0.2672    0.0000 C   0  0  0  0  0  0  0  0  0  0  0  0
    1.1993   -0.9816    0.0000 N   0  0  0  0  0  0  0  0  0  0  0  0
   -0.0382   -0.2672    0.0000 O   0  0  0  0  0  0  0  0  0  0  0  0
    1.5013    1.5743    0.0000 H   0  0  0  0  0  0  0  0  0  0  0  0
    0.3743    1.8763    0.0000 H   0  0  0  0  0  0  0  0  0  0  0  0
    0.0723    0.7493    0.0000 H   0  0  0  0  0  0  0  0  0  0  0  0
    2.0243    0.4473    0.0000 H   0  0  0  0  0  0  0  0  0  0  0  0
    0.7868   -1.6961    0.0000 H   0  0  0  0  0  0  0  0  0  0  0  0
    2.0243   -0.9816    0.0000 H   0  0  0  0  0  0  0  0  0  0  0  0
  1  2  1  0  0  0  0
  2  3  1  0  0  0  0
  3  4  1  0  0  0  0
  3  5  2  0  0  0  0
  1  6  1  0  0  0  0
  1  7  1  0  0  0  0
  1  8  1  0  0  0  0
  2  9  1  0  0  0  0
  4 10  1  0  0  0  0
  4 11  1  0  0  0  0
M  END
>  <id_input>
1951

>  <InChIKey>
XGEGHDBEHXKFPX-UHFFFAOYSA-N

>  <substance_name>
1-methylurea

>  <casrn>
598-50-5

>  <Molecular weight>
74.08184051513672

>  <guideline>
OECD Guideline 404 (Acute Dermal Irritation / Corrosion)

>  <species>
rabbit

>  <type_of_coverage>
semiocclusive

>  <max_duration(hrs)>
4.0

>  <vehicle>
water

>  <edema/ erythema score>
0.0

>  <max_score>
4.0

>  <reversibility>
0.0

>  <Outcome>
0

>  <StandardizerResult>
Remove Explicit Hydrogens (ID: RemoveExplicitH)
Clear Stereo (ID: ClearStereo)
Wedge Clean (ID: WedgeClean)
Mesomerize (ID: Mesomerize)
Tautomerize (ID: Tautomerize)
Add Explicit Hydrogens (ID: AddExplicitH)
Neutralize (ID: Neutralize)
Clean 2D (ID: Clean2D)


$$$$

  Mrv1812 02121911042D          

 12 11  0  0  0  0            999 V2000
    1.8648    0.1977    0.0000 C   0  0  0  0  0  0  0  0  0  0  0  0
    1.4523    0.9122    0.0000 C   0  0  0  0  0  0  0  0  0  0  0  0
    1.8648    1.6266    0.0000 O   0  0  0  0  0  0  0  0  0  0  0  0
    0.6273    0.9122    0.0000 O   0  0  0  0  0  0  0  0  0  0  0  0
    0.2148    1.6266    0.0000 C   0  0  0  0  0  0  0  0  0  0  0  0
   -0.6102    1.6266    0.0000 C   0  0  0  0  0  0  0  0  0  0  0  0
    1.1503   -0.2148    0.0000 H   0  0  0  0  0  0  0  0  0  0  0  0
    2.2773   -0.5168    0.0000 H   0  0  0  0  0  0  0  0  0  0  0  0
    2.5793    0.6102    0.0000 H   0  0  0  0  0  0  0  0  0  0  0  0
    0.6273    2.3411    0.0000 H   0  0  0  0  0  0  0  0  0  0  0  0
   -1.0227    2.3411    0.0000 H   0  0  0  0  0  0  0  0  0  0  0  0
   -1.0227    0.9122    0.0000 H   0  0  0  0  0  0  0  0  0  0  0  0
  1  2  1  0  0  0  0
  2  3  2  0  0  0  0
  2  4  1  0  0  0  0
  4  5  1  0  0  0  0
  5  6  2  0  0  0  0
  1  7  1  0  0  0  0
  1  8  1  0  0  0  0
  1  9  1  0  0  0  0
  5 10  1  0  0  0  0
  6 11  1  0  0  0  0
  6 12  1  0  0  0  0
M  END
>  <id_input>
4326

>  <InChIKey>
XTXRWKRVRITETP-UHFFFAOYSA-N

>  <substance_name>
ethenyl acetate

>  <casrn>
108-05-4

>  <Molecular weight>
86.08924102783203

>  <guideline>
OECD Guideline 404 (Acute Dermal Irritation / Corrosion)

>  <species>
rabbit

>  <type_of_coverage>
semiocclusive

>  <max_duration(hrs)>
4.0

>  <vehicle>
unchanged (no vehicle)

>  <edema/ erythema score>
0.33

>  <max_score>
4.0

>  <reversibility>
0.0

>  <Outcome>
0

>  <StandardizerResult>
Remove Explicit Hydrogens (ID: RemoveExplicitH)
Clear Stereo (ID: ClearStereo)
Wedge Clean (ID: WedgeClean)
Mesomerize (ID: Mesomerize)
Tautomerize (ID: Tautomerize)
Add Explicit Hydrogens (ID: AddExplicitH)
Neutralize (ID: Neutralize)
Clean 2D (ID: Clean2D)


$$$$

  Mrv1812 02121911042D          

 35 34  0  0  0  0            999 V2000
    4.4138    2.4772    0.0000 C   0  0  0  0  0  0  0  0  0  0  0  0
    3.6994    2.0647    0.0000 C   0  0  0  0  0  0  0  0  0  0  0  0
    3.6994    1.2397    0.0000 O   0  0  0  0  0  0  0  0  0  0  0  0
    2.9849    0.8272    0.0000 Si  0  0  0  0  0  4  0  0  0  0  0  0
    2.2704    0.4147    0.0000 C   0  0  0  0  0  0  0  0  0  0  0  0
    1.5559    0.8272    0.0000 C   0  0  0  0  0  0  0  0  0  0  0  0
    0.8415    0.4147    0.0000 C   0  0  0  0  0  0  0  0  0  0  0  0
    0.8415   -0.4103    0.0000 Cl  0  0  0  0  0  0  0  0  0  0  0  0
    2.5724    1.5416    0.0000 O   0  0  0  0  0  0  0  0  0  0  0  0
    1.7474    1.5416    0.0000 C   0  0  0  0  0  0  0  0  0  0  0  0
    1.3349    2.2561    0.0000 C   0  0  0  0  0  0  0  0  0  0  0  0
    3.3974    0.1127    0.0000 O   0  0  0  0  0  0  0  0  0  0  0  0
    2.9849   -0.6018    0.0000 C   0  0  0  0  0  0  0  0  0  0  0  0
    2.1599   -0.6018    0.0000 C   0  0  0  0  0  0  0  0  0  0  0  0
    4.8263    1.7627    0.0000 H   0  0  0  0  0  0  0  0  0  0  0  0
    5.1283    2.8897    0.0000 H   0  0  0  0  0  0  0  0  0  0  0  0
    4.0013    3.1916    0.0000 H   0  0  0  0  0  0  0  0  0  0  0  0
    3.2460    2.7539    0.0000 H   0  0  0  0  0  0  0  0  0  0  0  0
    2.8757    2.1126    0.0000 H   0  0  0  0  0  0  0  0  0  0  0  0
    1.9002   -0.3226    0.0000 H   0  0  0  0  0  0  0  0  0  0  0  0
    2.6407   -0.3226    0.0000 H   0  0  0  0  0  0  0  0  0  0  0  0
    0.9014    1.3294    0.0000 H   0  0  0  0  0  0  0  0  0  0  0  0
    2.3181    1.1429    0.0000 H   0  0  0  0  0  0  0  0  0  0  0  0
    0.0781    0.7276    0.0000 H   0  0  0  0  0  0  0  0  0  0  0  0
    0.0593    0.1523    0.0000 H   0  0  0  0  0  0  0  0  0  0  0  0
    2.3794    2.0719    0.0000 H   0  0  0  0  0  0  0  0  0  0  0  0
    1.8906    2.3541    0.0000 H   0  0  0  0  0  0  0  0  0  0  0  0
    1.4426    3.0740    0.0000 H   0  0  0  0  0  0  0  0  0  0  0  0
    0.5872    2.6048    0.0000 H   0  0  0  0  0  0  0  0  0  0  0  0
    0.7775    1.6478    0.0000 H   0  0  0  0  0  0  0  0  0  0  0  0
    3.0329   -1.4254    0.0000 H   0  0  0  0  0  0  0  0  0  0  0  0
    3.6742   -1.0551    0.0000 H   0  0  0  0  0  0  0  0  0  0  0  0
    1.3467   -0.7408    0.0000 H   0  0  0  0  0  0  0  0  0  0  0  0
    1.8305   -1.3582    0.0000 H   0  0  0  0  0  0  0  0  0  0  0  0
    2.6120   -1.2919    0.0000 H   0  0  0  0  0  0  0  0  0  0  0  0
  1  2  1  0  0  0  0
  2  3  1  0  0  0  0
  3  4  1  0  0  0  0
  4  5  1  0  0  0  0
  5  6  1  0  0  0  0
  6  7  1  0  0  0  0
  7  8  1  0  0  0  0
  4  9  1  0  0  0  0
  9 10  1  0  0  0  0
 10 11  1  0  0  0  0
  4 12  1  0  0  0  0
 12 13  1  0  0  0  0
 13 14  1  0  0  0  0
  1 15  1  0  0  0  0
  1 16  1  0  0  0  0
  1 17  1  0  0  0  0
  2 18  1  0  0  0  0
  2 19  1  0  0  0  0
  5 20  1  0  0  0  0
  5 21  1  0  0  0  0
  6 22  1  0  0  0  0
  6 23  1  0  0  0  0
  7 24  1  0  0  0  0
  7 25  1  0  0  0  0
 10 26  1  0  0  0  0
 10 27  1  0  0  0  0
 11 28  1  0  0  0  0
 11 29  1  0  0  0  0
 11 30  1  0  0  0  0
 13 31  1  0  0  0  0
 13 32  1  0  0  0  0
 14 33  1  0  0  0  0
 14 34  1  0  0  0  0
 14 35  1  0  0  0  0
M  END
>  <id_input>
89, 90

>  <InChIKey>
KSCAZPYHLGGNPZ-UHFFFAOYSA-N

>  <substance_name>
(3-chloropropyl)triethoxysilane

>  <casrn>
5089-70-3

>  <Molecular weight>
240.79974365234375

>  <species>
rabbit

>  <type_of_coverage>
semiocclusive

>  <max_duration(hrs)>
4.0

>  <vehicle>
unchanged (no vehicle)

>  <edema/ erythema score>
0.15

>  <max_score>
4.0

>  <reversibility>
0.0

>  <Outcome>
0

>  <StandardizerResult>
Remove Explicit Hydrogens (ID: RemoveExplicitH)
Clear Stereo (ID: ClearStereo)
Wedge Clean (ID: WedgeClean)
Mesomerize (ID: Mesomerize)
Tautomerize (ID: Tautomerize)
Add Explicit Hydrogens (ID: AddExplicitH)
Neutralize (ID: Neutralize)
Clean 2D (ID: Clean2D)


$$$$

  Mrv1812 02121911042D          

 50 49  0  0  0  0            999 V2000
    2.2243    5.3883    0.0000 C   0  0  0  0  0  0  0  0  0  0  0  0
    1.5098    4.9758    0.0000 C   0  0  0  0  0  0  0  0  0  0  0  0
    1.5098    4.1508    0.0000 C   0  0  0  0  0  0  0  0  0  0  0  0
    0.7953    3.7383    0.0000 C   0  0  0  0  0  0  0  0  0  0  0  0
    0.7953    2.9133    0.0000 C   0  0  0  0  0  0  0  0  0  0  0  0
    1.5098    2.5008    0.0000 C   0  0  0  0  0  0  0  0  0  0  0  0
    1.5098    1.6758    0.0000 C   0  0  0  0  0  0  0  0  0  0  0  0
    2.2243    1.2633    0.0000 C   0  0  0  0  0  0  0  0  0  0  0  0
    2.9388    1.6758    0.0000 C   0  0  0  0  0  0  0  0  0  0  0  0
    3.6532    1.2633    0.0000 C   0  0  0  0  0  0  0  0  0  0  0  0
    4.3677    1.6758    0.0000 C   0  0  0  0  0  0  0  0  0  0  0  0
    5.0822    1.2633    0.0000 C   0  0  0  0  0  0  0  0  0  0  0  0
    5.7966    1.6758    0.0000 C   0  0  0  0  0  0  0  0  0  0  0  0
    6.5111    1.2633    0.0000 C   0  0  0  0  0  0  0  0  0  0  0  0
    7.2256    1.6758    0.0000 C   0  0  0  0  0  0  0  0  0  0  0  0
    7.9401    1.2633    0.0000 C   0  0  0  0  0  0  0  0  0  0  0  0
    8.6545    1.6758    0.0000 C   0  0  0  0  0  0  0  0  0  0  0  0
    9.3690    1.2633    0.0000 C   0  0  0  0  0  0  0  0  0  0  0  0
   10.0835    1.6758    0.0000 O   0  0  0  0  0  0  0  0  0  0  0  0
    9.3690    0.4383    0.0000 O   0  0  0  0  0  0  0  0  0  0  0  0
    2.6368    4.6738    0.0000 H   0  0  0  0  0  0  0  0  0  0  0  0
    2.9388    5.8008    0.0000 H   0  0  0  0  0  0  0  0  0  0  0  0
    1.8118    6.1028    0.0000 H   0  0  0  0  0  0  0  0  0  0  0  0
    1.0565    5.6651    0.0000 H   0  0  0  0  0  0  0  0  0  0  0  0
    0.6862    5.0238    0.0000 H   0  0  0  0  0  0  0  0  0  0  0  0
    2.2243    3.7383    0.0000 H   0  0  0  0  0  0  0  0  0  0  0  0
    0.0809    4.1508    0.0000 H   0  0  0  0  0  0  0  0  0  0  0  0
   -0.0283    2.8653    0.0000 H   0  0  0  0  0  0  0  0  0  0  0  0
    0.3420    2.2240    0.0000 H   0  0  0  0  0  0  0  0  0  0  0  0
    2.2243    2.9133    0.0000 H   0  0  0  0  0  0  0  0  0  0  0  0
    0.7953    1.2633    0.0000 H   0  0  0  0  0  0  0  0  0  0  0  0
    1.8540    0.5261    0.0000 H   0  0  0  0  0  0  0  0  0  0  0  0
    2.5945    0.5261    0.0000 H   0  0  0  0  0  0  0  0  0  0  0  0
    2.9388    2.5008    0.0000 H   0  0  0  0  0  0  0  0  0  0  0  0
    3.6532    0.4383    0.0000 H   0  0  0  0  0  0  0  0  0  0  0  0
    4.7380    2.4130    0.0000 H   0  0  0  0  0  0  0  0  0  0  0  0
    3.9974    2.4130    0.0000 H   0  0  0  0  0  0  0  0  0  0  0  0
    4.7119    0.5261    0.0000 H   0  0  0  0  0  0  0  0  0  0  0  0
    5.4524    0.5261    0.0000 H   0  0  0  0  0  0  0  0  0  0  0  0
    6.1669    2.4130    0.0000 H   0  0  0  0  0  0  0  0  0  0  0  0
    5.4264    2.4130    0.0000 H   0  0  0  0  0  0  0  0  0  0  0  0
    6.1409    0.5261    0.0000 H   0  0  0  0  0  0  0  0  0  0  0  0
    6.8814    0.5261    0.0000 H   0  0  0  0  0  0  0  0  0  0  0  0
    7.5958    2.4130    0.0000 H   0  0  0  0  0  0  0  0  0  0  0  0
    6.8553    2.4130    0.0000 H   0  0  0  0  0  0  0  0  0  0  0  0
    7.5698    0.5261    0.0000 H   0  0  0  0  0  0  0  0  0  0  0  0
    8.3103    0.5261    0.0000 H   0  0  0  0  0  0  0  0  0  0  0  0
    9.0248    2.4130    0.0000 H   0  0  0  0  0  0  0  0  0  0  0  0
    8.2843    2.4130    0.0000 H   0  0  0  0  0  0  0  0  0  0  0  0
    8.6545    0.0258    0.0000 H   0  0  0  0  0  0  0  0  0  0  0  0
  1  2  1  0  0  0  0
  3  2  1  4  0  0  0
  3  4  2  0  0  0  0
  4  5  1  0  0  0  0
  6  5  1  4  0  0  0
  6  7  2  0  0  0  0
  7  8  1  0  0  0  0
  9  8  1  4  0  0  0
  9 10  2  0  0  0  0
 10 11  1  0  0  0  0
 11 12  1  0  0  0  0
 12 13  1  0  0  0  0
 13 14  1  0  0  0  0
 14 15  1  0  0  0  0
 15 16  1  0  0  0  0
 16 17  1  0  0  0  0
 17 18  1  0  0  0  0
 18 19  2  0  0  0  0
 18 20  1  0  0  0  0
  1 21  1  0  0  0  0
  1 22  1  0  0  0  0
  1 23  1  0  0  0  0
  2 24  1  0  0  0  0
  2 25  1  0  0  0  0
  3 26  1  0  0  0  0
  4 27  1  0  0  0  0
  5 28  1  0  0  0  0
  5 29  1  0  0  0  0
  6 30  1  0  0  0  0
  7 31  1  0  0  0  0
  8 32  1  0  0  0  0
  8 33  1  0  0  0  0
  9 34  1  0  0  0  0
 10 35  1  0  0  0  0
 11 36  1  0  0  0  0
 11 37  1  0  0  0  0
 12 38  1  0  0  0  0
 12 39  1  0  0  0  0
 13 40  1  0  0  0  0
 13 41  1  0  0  0  0
 14 42  1  0  0  0  0
 14 43  1  0  0  0  0
 15 44  1  0  0  0  0
 15 45  1  0  0  0  0
 16 46  1  0  0  0  0
 16 47  1  0  0  0  0
 17 48  1  0  0  0  0
 17 49  1  0  0  0  0
 20 50  1  0  0  0  0
M  END
>  <id_input>
3605, 3606, 3610, 3611, 3617

>  <InChIKey>
DTOSIQBPPRVQHS-UHFFFAOYSA-N

>  <substance_name>
Resin acids and Rosin acids, esters with diethylene glycol

>  <casrn>
68153-38-8

>  <Molecular weight>
278.4295959472656

>  <guideline>
OECD Guideline 404 (Acute Dermal Irritation / Corrosion)

>  <species>
rabbit

>  <type_of_coverage>
semiocclusive

>  <max_duration(hrs)>
4.0

>  <vehicle>
unchanged (no vehicle)

>  <edema/ erythema score>
0.7905000000000001

>  <max_score>
4.0

>  <reversibility>
0.0

>  <Outcome>
0

>  <StandardizerResult>
Remove Explicit Hydrogens (ID: RemoveExplicitH)
Clear Stereo (ID: ClearStereo)
Wedge Clean (ID: WedgeClean)
Mesomerize (ID: Mesomerize)
Tautomerize (ID: Tautomerize)
Add Explicit Hydrogens (ID: AddExplicitH)
Neutralize (ID: Neutralize)
Clean 2D (ID: Clean2D)


$$$$

  Mrv1812 02121911042D          

 12 11  0  0  0  0            999 V2000
    0.4303    1.2804    0.0000 C   0  0  0  0  0  0  0  0  0  0  0  0
    0.8428    0.5660    0.0000 C   0  0  0  0  0  0  0  0  0  0  0  0
    1.6678    0.5660    0.0000 C   0  0  0  0  0  0  0  0  0  0  0  0
    0.4303   -0.1485    0.0000 C   0  0  0  0  0  0  0  0  0  0  0  0
    0.8428   -0.8630    0.0000 O   0  0  0  0  0  0  0  0  0  0  0  0
   -0.3947   -0.1485    0.0000 O   0  0  0  0  0  0  0  0  0  0  0  0
    1.1448    1.6929    0.0000 H   0  0  0  0  0  0  0  0  0  0  0  0
    0.0178    1.9949    0.0000 H   0  0  0  0  0  0  0  0  0  0  0  0
   -0.2842    0.8679    0.0000 H   0  0  0  0  0  0  0  0  0  0  0  0
    2.0803   -0.1485    0.0000 H   0  0  0  0  0  0  0  0  0  0  0  0
    2.0803    1.2804    0.0000 H   0  0  0  0  0  0  0  0  0  0  0  0
    0.4303   -1.5775    0.0000 H   0  0  0  0  0  0  0  0  0  0  0  0
  1  2  1  0  0  0  0
  2  3  2  0  0  0  0
  2  4  1  0  0  0  0
  4  5  1  0  0  0  0
  4  6  2  0  0  0  0
  1  7  1  0  0  0  0
  1  8  1  0  0  0  0
  1  9  1  0  0  0  0
  3 10  1  0  0  0  0
  3 11  1  0  0  0  0
  5 12  1  0  0  0  0
M  END
>  <id_input>
6171

>  <InChIKey>
CERQOIWHTDAKMF-UHFFFAOYSA-N

>  <substance_name>
zinc(2+) ion bis(2-methylprop-2-enoate)

>  <casrn>
13189-00-9

>  <Molecular weight>
85.081298828125

>  <guideline>
OECD Guideline 404 (Acute Dermal Irritation / Corrosion)

>  <species>
rabbit

>  <type_of_coverage>
semiocclusive

>  <max_duration(hrs)>
4.0

>  <vehicle>
other: 0.5 g of the test item, moistened sufficiently with 0.5 ml of distilled water to achieve paste consistency

>  <edema/ erythema score>
0.666666666666666

>  <max_score>
4.0

>  <reversibility>
0.0

>  <Outcome>
0

>  <StandardizerResult>
Remove Explicit Hydrogens (ID: RemoveExplicitH)
Clear Stereo (ID: ClearStereo)
Wedge Clean (ID: WedgeClean)
Mesomerize (ID: Mesomerize)
Tautomerize (ID: Tautomerize)
Add Explicit Hydrogens (ID: AddExplicitH)
Neutralize (ID: Neutralize)
Clean 2D (ID: Clean2D)


$$$$

  Mrv1812 02121911042D          

 59 58  0  0  0  0            999 V2000
   -1.2794    3.3902    0.0000 C   0  0  0  0  0  0  0  0  0  0  0  0
   -0.5650    2.9777    0.0000 C   0  0  0  0  0  0  0  0  0  0  0  0
    0.1495    3.3902    0.0000 O   0  0  0  0  0  0  0  0  0  0  0  0
    0.8640    2.9777    0.0000 Si  0  0  0  0  0  4  0  0  0  0  0  0
    0.4515    2.2632    0.0000 O   0  0  0  0  0  0  0  0  0  0  0  0
    0.8640    1.5488    0.0000 C   0  0  0  0  0  0  0  0  0  0  0  0
    0.4515    0.8343    0.0000 C   0  0  0  0  0  0  0  0  0  0  0  0
    1.2765    3.6922    0.0000 O   0  0  0  0  0  0  0  0  0  0  0  0
    2.1015    3.6922    0.0000 C   0  0  0  0  0  0  0  0  0  0  0  0
    2.5140    4.4066    0.0000 C   0  0  0  0  0  0  0  0  0  0  0  0
    1.5785    2.5652    0.0000 C   0  0  0  0  0  0  0  0  0  0  0  0
    2.2929    2.9777    0.0000 C   0  0  0  0  0  0  0  0  0  0  0  0
    3.0074    2.5652    0.0000 C   0  0  0  0  0  0  0  0  0  0  0  0
    3.7219    2.9777    0.0000 S   0  0  0  0  0  0  0  0  0  0  0  0
    4.4363    2.5652    0.0000 C   0  0  0  0  0  0  0  0  0  0  0  0
    4.4363    1.7402    0.0000 O   0  0  0  0  0  0  0  0  0  0  0  0
    5.1508    2.9777    0.0000 C   0  0  0  0  0  0  0  0  0  0  0  0
    5.8653    2.5652    0.0000 C   0  0  0  0  0  0  0  0  0  0  0  0
    6.5798    2.9777    0.0000 C   0  0  0  0  0  0  0  0  0  0  0  0
    7.2942    2.5652    0.0000 C   0  0  0  0  0  0  0  0  0  0  0  0
    8.0087    2.9777    0.0000 C   0  0  0  0  0  0  0  0  0  0  0  0
    8.7232    2.5652    0.0000 C   0  0  0  0  0  0  0  0  0  0  0  0
    9.4376    2.9777    0.0000 C   0  0  0  0  0  0  0  0  0  0  0  0
   -0.8669    4.1047    0.0000 H   0  0  0  0  0  0  0  0  0  0  0  0
   -1.9939    3.8027    0.0000 H   0  0  0  0  0  0  0  0  0  0  0  0
   -1.6919    2.6757    0.0000 H   0  0  0  0  0  0  0  0  0  0  0  0
   -0.9352    2.2405    0.0000 H   0  0  0  0  0  0  0  0  0  0  0  0
   -0.1947    2.2405    0.0000 H   0  0  0  0  0  0  0  0  0  0  0  0
    1.6012    1.1785    0.0000 H   0  0  0  0  0  0  0  0  0  0  0  0
    1.6012    1.9190    0.0000 H   0  0  0  0  0  0  0  0  0  0  0  0
   -0.2630    1.2468    0.0000 H   0  0  0  0  0  0  0  0  0  0  0  0
    0.0390    0.1198    0.0000 H   0  0  0  0  0  0  0  0  0  0  0  0
    1.1660    0.4218    0.0000 H   0  0  0  0  0  0  0  0  0  0  0  0
    2.9194    3.5845    0.0000 H   0  0  0  0  0  0  0  0  0  0  0  0
    1.6890    4.4066    0.0000 H   0  0  0  0  0  0  0  0  0  0  0  0
    3.3380    4.3662    0.0000 H   0  0  0  0  0  0  0  0  0  0  0  0
    2.9496    5.1072    0.0000 H   0  0  0  0  0  0  0  0  0  0  0  0
    2.1132    5.1278    0.0000 H   0  0  0  0  0  0  0  0  0  0  0  0
    0.8714    2.1402    0.0000 H   0  0  0  0  0  0  0  0  0  0  0  0
    1.5785    3.3902    0.0000 H   0  0  0  0  0  0  0  0  0  0  0  0
    2.0108    2.2025    0.0000 H   0  0  0  0  0  0  0  0  0  0  0  0
    2.5751    2.2025    0.0000 H   0  0  0  0  0  0  0  0  0  0  0  0
    3.4806    1.8894    0.0000 H   0  0  0  0  0  0  0  0  0  0  0  0
    3.0074    3.3902    0.0000 H   0  0  0  0  0  0  0  0  0  0  0  0
    5.5211    3.7150    0.0000 H   0  0  0  0  0  0  0  0  0  0  0  0
    4.7805    3.7150    0.0000 H   0  0  0  0  0  0  0  0  0  0  0  0
    5.4950    1.8280    0.0000 H   0  0  0  0  0  0  0  0  0  0  0  0
    6.2355    1.8280    0.0000 H   0  0  0  0  0  0  0  0  0  0  0  0
    6.9500    3.7150    0.0000 H   0  0  0  0  0  0  0  0  0  0  0  0
    6.2095    3.7150    0.0000 H   0  0  0  0  0  0  0  0  0  0  0  0
    6.9240    1.8280    0.0000 H   0  0  0  0  0  0  0  0  0  0  0  0
    7.6645    1.8280    0.0000 H   0  0  0  0  0  0  0  0  0  0  0  0
    8.3790    3.7150    0.0000 H   0  0  0  0  0  0  0  0  0  0  0  0
    7.6384    3.7150    0.0000 H   0  0  0  0  0  0  0  0  0  0  0  0
    8.3529    1.8280    0.0000 H   0  0  0  0  0  0  0  0  0  0  0  0
    9.0934    1.8280    0.0000 H   0  0  0  0  0  0  0  0  0  0  0  0
    9.8501    2.2632    0.0000 H   0  0  0  0  0  0  0  0  0  0  0  0
   10.1521    3.3902    0.0000 H   0  0  0  0  0  0  0  0  0  0  0  0
    9.0251    3.6922    0.0000 H   0  0  0  0  0  0  0  0  0  0  0  0
  1  2  1  0  0  0  0
  2  3  1  0  0  0  0
  3  4  1  0  0  0  0
  4  5  1  0  0  0  0
  5  6  1  0  0  0  0
  6  7  1  0  0  0  0
  4  8  1  0  0  0  0
  8  9  1  0  0  0  0
  9 10  1  0  0  0  0
  4 11  1  0  0  0  0
 11 12  1  0  0  0  0
 12 13  1  0  0  0  0
 13 14  1  0  0  0  0
 14 15  1  0  0  0  0
 15 16  2  0  0  0  0
 15 17  1  0  0  0  0
 17 18  1  0  0  0  0
 18 19  1  0  0  0  0
 19 20  1  0  0  0  0
 20 21  1  0  0  0  0
 21 22  1  0  0  0  0
 22 23  1  0  0  0  0
  1 24  1  0  0  0  0
  1 25  1  0  0  0  0
  1 26  1  0  0  0  0
  2 27  1  0  0  0  0
  2 28  1  0  0  0  0
  6 29  1  0  0  0  0
  6 30  1  0  0  0  0
  7 31  1  0  0  0  0
  7 32  1  0  0  0  0
  7 33  1  0  0  0  0
  9 34  1  0  0  0  0
  9 35  1  0  0  0  0
 10 36  1  0  0  0  0
 10 37  1  0  0  0  0
 10 38  1  0  0  0  0
 11 39  1  0  0  0  0
 11 40  1  0  0  0  0
 12 41  1  0  0  0  0
 12 42  1  0  0  0  0
 13 43  1  0  0  0  0
 13 44  1  0  0  0  0
 17 45  1  0  0  0  0
 17 46  1  0  0  0  0
 18 47  1  0  0  0  0
 18 48  1  0  0  0  0
 19 49  1  0  0  0  0
 19 50  1  0  0  0  0
 20 51  1  0  0  0  0
 20 52  1  0  0  0  0
 21 53  1  0  0  0  0
 21 54  1  0  0  0  0
 22 55  1  0  0  0  0
 22 56  1  0  0  0  0
 23 57  1  0  0  0  0
 23 58  1  0  0  0  0
 23 59  1  0  0  0  0
M  END
>  <id_input>
1969

>  <InChIKey>
JPPLPDOXWBVPCW-UHFFFAOYSA-N

>  <substance_name>
1-{[3-(triethoxysilyl)propyl]sulfanyl}octan-1-one

>  <casrn>
220727-26-4

>  <Molecular weight>
364.6158447265625

>  <guideline>
OECD Guideline 404 (Acute Dermal Irritation / Corrosion)

>  <species>
rabbit

>  <type_of_coverage>
semiocclusive

>  <max_duration(hrs)>
4.0

>  <vehicle>
unchanged (no vehicle)

>  <edema/ erythema score>
1.10666666666666

>  <max_score>
4.0

>  <reversibility>
0.0

>  <Outcome>
0

>  <StandardizerResult>
Remove Explicit Hydrogens (ID: RemoveExplicitH)
Clear Stereo (ID: ClearStereo)
Wedge Clean (ID: WedgeClean)
Mesomerize (ID: Mesomerize)
Tautomerize (ID: Tautomerize)
Add Explicit Hydrogens (ID: AddExplicitH)
Neutralize (ID: Neutralize)
Clean 2D (ID: Clean2D)


$$$$

  Mrv1812 02121911042D          

 22 21  0  0  0  0            999 V2000
    0.0000   -0.0024    0.0000 C   0  0  0  0  0  0  0  0  0  0  0  0
    0.7145    0.4101    0.0000 C   0  0  0  0  0  0  0  0  0  0  0  0
    1.4290   -0.0024    0.0000 C   0  0  0  0  0  0  0  0  0  0  0  0
    2.1435    0.4101    0.0000 C   0  0  0  0  0  0  0  0  0  0  0  0
    2.8579   -0.0024    0.0000 O   0  0  0  0  0  0  0  0  0  0  0  0
    3.5724    0.4101    0.0000 C   0  0  0  0  0  0  0  0  0  0  0  0
    4.2869   -0.0024    0.0000 C   0  0  0  0  0  0  0  0  0  0  0  0
    5.0013    0.4101    0.0000 O   0  0  0  0  0  0  0  0  0  0  0  0
   -0.4125    0.7121    0.0000 H   0  0  0  0  0  0  0  0  0  0  0  0
   -0.7144   -0.4149    0.0000 H   0  0  0  0  0  0  0  0  0  0  0  0
    0.4125   -0.7169    0.0000 H   0  0  0  0  0  0  0  0  0  0  0  0
    1.0848    1.1473    0.0000 H   0  0  0  0  0  0  0  0  0  0  0  0
    0.3443    1.1473    0.0000 H   0  0  0  0  0  0  0  0  0  0  0  0
    1.0587   -0.7396    0.0000 H   0  0  0  0  0  0  0  0  0  0  0  0
    1.7992   -0.7396    0.0000 H   0  0  0  0  0  0  0  0  0  0  0  0
    2.5137    1.1473    0.0000 H   0  0  0  0  0  0  0  0  0  0  0  0
    1.7732    1.1473    0.0000 H   0  0  0  0  0  0  0  0  0  0  0  0
    3.9427    1.1473    0.0000 H   0  0  0  0  0  0  0  0  0  0  0  0
    3.2021    1.1473    0.0000 H   0  0  0  0  0  0  0  0  0  0  0  0
    3.9166   -0.7396    0.0000 H   0  0  0  0  0  0  0  0  0  0  0  0
    4.6571   -0.7396    0.0000 H   0  0  0  0  0  0  0  0  0  0  0  0
    5.7158   -0.0024    0.0000 H   0  0  0  0  0  0  0  0  0  0  0  0
  1  2  1  0  0  0  0
  2  3  1  0  0  0  0
  3  4  1  0  0  0  0
  4  5  1  0  0  0  0
  5  6  1  0  0  0  0
  6  7  1  0  0  0  0
  7  8  1  0  0  0  0
  1  9  1  0  0  0  0
  1 10  1  0  0  0  0
  1 11  1  0  0  0  0
  2 12  1  0  0  0  0
  2 13  1  0  0  0  0
  3 14  1  0  0  0  0
  3 15  1  0  0  0  0
  4 16  1  0  0  0  0
  4 17  1  0  0  0  0
  6 18  1  0  0  0  0
  6 19  1  0  0  0  0
  7 20  1  0  0  0  0
  7 21  1  0  0  0  0
  8 22  1  0  0  0  0
M  END
>  <id_input>
3553

>  <InChIKey>
POAOYUHQDCAZBD-UHFFFAOYSA-N

>  <substance_name>
Poly(oxy-1,2-ethanediyl), ????-butyl-?????-hydroxy-

>  <casrn>
9004-77-7

>  <Molecular weight>
118.17416381835938

>  <guideline>
OECD Guideline 404 (Acute Dermal Irritation / Corrosion)

>  <species>
rabbit

>  <type_of_coverage>
semiocclusive

>  <max_duration(hrs)>
4.0

>  <vehicle>
unchanged (no vehicle)

>  <edema/ erythema score>
0.22

>  <max_score>
4.0

>  <reversibility>
0.0

>  <Outcome>
0

>  <StandardizerResult>
Remove Explicit Hydrogens (ID: RemoveExplicitH)
Clear Stereo (ID: ClearStereo)
Wedge Clean (ID: WedgeClean)
Mesomerize (ID: Mesomerize)
Tautomerize (ID: Tautomerize)
Add Explicit Hydrogens (ID: AddExplicitH)
Neutralize (ID: Neutralize)
Clean 2D (ID: Clean2D)


$$$$

  Mrv1812 02121911042D          

 27 26  0  0  0  0            999 V2000
    0.0006    0.3850    0.0000 C   0  0  0  0  0  0  0  0  0  0  0  0
    0.7150   -0.0275    0.0000 O   0  0  0  0  0  0  0  0  0  0  0  0
    1.4295    0.3850    0.0000 C   0  0  0  0  0  0  0  0  0  0  0  0
    2.1440   -0.0275    0.0000 C   0  0  0  0  0  0  0  0  0  0  0  0
    2.8585    0.3850    0.0000 O   0  0  0  0  0  0  0  0  0  0  0  0
    3.5729   -0.0275    0.0000 C   0  0  0  0  0  0  0  0  0  0  0  0
    4.2874    0.3850    0.0000 O   0  0  0  0  0  0  0  0  0  0  0  0
    5.0019   -0.0275    0.0000 C   0  0  0  0  0  0  0  0  0  0  0  0
    5.7163    0.3850    0.0000 C   0  0  0  0  0  0  0  0  0  0  0  0
    6.4308   -0.0275    0.0000 O   0  0  0  0  0  0  0  0  0  0  0  0
    7.1453    0.3850    0.0000 C   0  0  0  0  0  0  0  0  0  0  0  0
    0.4131    1.0994    0.0000 H   0  0  0  0  0  0  0  0  0  0  0  0
   -0.7139    0.7975    0.0000 H   0  0  0  0  0  0  0  0  0  0  0  0
   -0.4119   -0.3295    0.0000 H   0  0  0  0  0  0  0  0  0  0  0  0
    1.7998    1.1222    0.0000 H   0  0  0  0  0  0  0  0  0  0  0  0
    1.0593    1.1222    0.0000 H   0  0  0  0  0  0  0  0  0  0  0  0
    1.7737   -0.7648    0.0000 H   0  0  0  0  0  0  0  0  0  0  0  0
    2.5142   -0.7648    0.0000 H   0  0  0  0  0  0  0  0  0  0  0  0
    3.2027   -0.7648    0.0000 H   0  0  0  0  0  0  0  0  0  0  0  0
    3.9432   -0.7648    0.0000 H   0  0  0  0  0  0  0  0  0  0  0  0
    4.6316   -0.7648    0.0000 H   0  0  0  0  0  0  0  0  0  0  0  0
    5.3721   -0.7648    0.0000 H   0  0  0  0  0  0  0  0  0  0  0  0
    6.0866    1.1222    0.0000 H   0  0  0  0  0  0  0  0  0  0  0  0
    5.3461    1.1222    0.0000 H   0  0  0  0  0  0  0  0  0  0  0  0
    7.5578   -0.3295    0.0000 H   0  0  0  0  0  0  0  0  0  0  0  0
    7.8598    0.7975    0.0000 H   0  0  0  0  0  0  0  0  0  0  0  0
    6.7328    1.0994    0.0000 H   0  0  0  0  0  0  0  0  0  0  0  0
  1  2  1  0  0  0  0
  2  3  1  0  0  0  0
  3  4  1  0  0  0  0
  4  5  1  0  0  0  0
  5  6  1  0  0  0  0
  6  7  1  0  0  0  0
  7  8  1  0  0  0  0
  8  9  1  0  0  0  0
  9 10  1  0  0  0  0
 10 11  1  0  0  0  0
  1 12  1  0  0  0  0
  1 13  1  0  0  0  0
  1 14  1  0  0  0  0
  3 15  1  0  0  0  0
  3 16  1  0  0  0  0
  4 17  1  0  0  0  0
  4 18  1  0  0  0  0
  6 19  1  0  0  0  0
  6 20  1  0  0  0  0
  8 21  1  0  0  0  0
  8 22  1  0  0  0  0
  9 23  1  0  0  0  0
  9 24  1  0  0  0  0
 11 25  1  0  0  0  0
 11 26  1  0  0  0  0
 11 27  1  0  0  0  0
M  END
>  <id_input>
2131

>  <InChIKey>
QWRBKBNCFWPVJX-UHFFFAOYSA-N

>  <substance_name>
2,5,7,10-tetraoxaundecane

>  <casrn>
4431-83-8

>  <Molecular weight>
164.1995391845703

>  <guideline>
EU Method B.4 (Acute Toxicity: Dermal Irritation / Corrosion)

>  <species>
rabbit

>  <type_of_coverage>
semiocclusive

>  <max_duration(hrs)>
4.0

>  <vehicle>
unchanged (no vehicle)

>  <edema/ erythema score>
0.5

>  <max_score>
4.0

>  <reversibility>
0.0

>  <Outcome>
0

>  <StandardizerResult>
Remove Explicit Hydrogens (ID: RemoveExplicitH)
Clear Stereo (ID: ClearStereo)
Wedge Clean (ID: WedgeClean)
Mesomerize (ID: Mesomerize)
Tautomerize (ID: Tautomerize)
Add Explicit Hydrogens (ID: AddExplicitH)
Neutralize (ID: Neutralize)
Clean 2D (ID: Clean2D)


$$$$

  Mrv1812 02121911042D          

 71 70  0  0  0  0            999 V2000
   -0.0730   -0.1293    0.0000 C   0  0  0  0  0  0  0  0  0  0  0  0
    0.6414    0.2832    0.0000 C   0  0  0  0  0  0  0  0  0  0  0  0
    1.3559   -0.1293    0.0000 C   0  0  0  0  0  0  0  0  0  0  0  0
    2.0704    0.2832    0.0000 C   0  0  0  0  0  0  0  0  0  0  0  0
    2.7848   -0.1293    0.0000 C   0  0  0  0  0  0  0  0  0  0  0  0
    3.4993    0.2832    0.0000 C   0  0  0  0  0  0  0  0  0  0  0  0
    4.2138   -0.1293    0.0000 C   0  0  0  0  0  0  0  0  0  0  0  0
    4.9283    0.2832    0.0000 C   0  0  0  0  0  0  0  0  0  0  0  0
    5.6427   -0.1293    0.0000 C   0  0  0  0  0  0  0  0  0  0  0  0
    6.3572    0.2832    0.0000 C   0  0  0  0  0  0  0  0  0  0  0  0
    7.0717   -0.1293    0.0000 C   0  0  0  0  0  0  0  0  0  0  0  0
    7.7861    0.2832    0.0000 C   0  0  0  0  0  0  0  0  0  0  0  0
    8.5006   -0.1293    0.0000 C   0  0  0  0  0  0  0  0  0  0  0  0
    9.2151    0.2832    0.0000 C   0  0  0  0  0  0  0  0  0  0  0  0
    9.9296   -0.1293    0.0000 C   0  0  0  0  0  0  0  0  0  0  0  0
   10.6440    0.2832    0.0000 C   0  0  0  0  0  0  0  0  0  0  0  0
   11.3585   -0.1293    0.0000 C   0  0  0  0  0  0  0  0  0  0  0  0
   12.0730    0.2832    0.0000 C   0  0  0  0  0  0  0  0  0  0  0  0
   12.7874   -0.1293    0.0000 Si  0  0  0  0  0  4  0  0  0  0  0  0
   13.5019   -0.5418    0.0000 O   0  0  0  0  0  0  0  0  0  0  0  0
   14.2164   -0.1293    0.0000 C   0  0  0  0  0  0  0  0  0  0  0  0
   12.3749   -0.8438    0.0000 O   0  0  0  0  0  0  0  0  0  0  0  0
   12.7874   -1.5583    0.0000 C   0  0  0  0  0  0  0  0  0  0  0  0
   13.1999    0.5851    0.0000 O   0  0  0  0  0  0  0  0  0  0  0  0
   14.0249    0.5851    0.0000 C   0  0  0  0  0  0  0  0  0  0  0  0
   -0.4855    0.5851    0.0000 H   0  0  0  0  0  0  0  0  0  0  0  0
   -0.7875   -0.5418    0.0000 H   0  0  0  0  0  0  0  0  0  0  0  0
    0.3395   -0.8438    0.0000 H   0  0  0  0  0  0  0  0  0  0  0  0
    1.0117    1.0204    0.0000 H   0  0  0  0  0  0  0  0  0  0  0  0
    0.2712    1.0204    0.0000 H   0  0  0  0  0  0  0  0  0  0  0  0
    0.9856   -0.8666    0.0000 H   0  0  0  0  0  0  0  0  0  0  0  0
    1.7262   -0.8666    0.0000 H   0  0  0  0  0  0  0  0  0  0  0  0
    2.4406    1.0204    0.0000 H   0  0  0  0  0  0  0  0  0  0  0  0
    1.7001    1.0204    0.0000 H   0  0  0  0  0  0  0  0  0  0  0  0
    2.4146   -0.8666    0.0000 H   0  0  0  0  0  0  0  0  0  0  0  0
    3.1551   -0.8666    0.0000 H   0  0  0  0  0  0  0  0  0  0  0  0
    3.8696    1.0204    0.0000 H   0  0  0  0  0  0  0  0  0  0  0  0
    3.1291    1.0204    0.0000 H   0  0  0  0  0  0  0  0  0  0  0  0
    3.8435   -0.8666    0.0000 H   0  0  0  0  0  0  0  0  0  0  0  0
    4.5841   -0.8666    0.0000 H   0  0  0  0  0  0  0  0  0  0  0  0
    5.2985    1.0204    0.0000 H   0  0  0  0  0  0  0  0  0  0  0  0
    4.5580    1.0204    0.0000 H   0  0  0  0  0  0  0  0  0  0  0  0
    5.2725   -0.8666    0.0000 H   0  0  0  0  0  0  0  0  0  0  0  0
    6.0130   -0.8666    0.0000 H   0  0  0  0  0  0  0  0  0  0  0  0
    6.7275    1.0204    0.0000 H   0  0  0  0  0  0  0  0  0  0  0  0
    5.9869    1.0204    0.0000 H   0  0  0  0  0  0  0  0  0  0  0  0
    6.7014   -0.8666    0.0000 H   0  0  0  0  0  0  0  0  0  0  0  0
    7.4419   -0.8666    0.0000 H   0  0  0  0  0  0  0  0  0  0  0  0
    8.1564    1.0204    0.0000 H   0  0  0  0  0  0  0  0  0  0  0  0
    7.4159    1.0204    0.0000 H   0  0  0  0  0  0  0  0  0  0  0  0
    8.1304   -0.8666    0.0000 H   0  0  0  0  0  0  0  0  0  0  0  0
    8.8709   -0.8666    0.0000 H   0  0  0  0  0  0  0  0  0  0  0  0
    9.5853    1.0204    0.0000 H   0  0  0  0  0  0  0  0  0  0  0  0
    8.8448    1.0204    0.0000 H   0  0  0  0  0  0  0  0  0  0  0  0
    9.5593   -0.8666    0.0000 H   0  0  0  0  0  0  0  0  0  0  0  0
   10.2998   -0.8666    0.0000 H   0  0  0  0  0  0  0  0  0  0  0  0
   11.0143    1.0204    0.0000 H   0  0  0  0  0  0  0  0  0  0  0  0
   10.2738    1.0204    0.0000 H   0  0  0  0  0  0  0  0  0  0  0  0
   10.9882   -0.8666    0.0000 H   0  0  0  0  0  0  0  0  0  0  0  0
   11.7288   -0.8666    0.0000 H   0  0  0  0  0  0  0  0  0  0  0  0
   12.4432    1.0204    0.0000 H   0  0  0  0  0  0  0  0  0  0  0  0
   11.7027    1.0204    0.0000 H   0  0  0  0  0  0  0  0  0  0  0  0
   14.2703   -0.9526    0.0000 H   0  0  0  0  0  0  0  0  0  0  0  0
   14.9786   -0.4450    0.0000 H   0  0  0  0  0  0  0  0  0  0  0  0
   14.8367    0.4146    0.0000 H   0  0  0  0  0  0  0  0  0  0  0  0
   12.0730   -1.9708    0.0000 H   0  0  0  0  0  0  0  0  0  0  0  0
   13.1999   -2.2727    0.0000 H   0  0  0  0  0  0  0  0  0  0  0  0
   13.5019   -1.1458    0.0000 H   0  0  0  0  0  0  0  0  0  0  0  0
   14.4027    1.3186    0.0000 H   0  0  0  0  0  0  0  0  0  0  0  0
   13.8060    1.3806    0.0000 H   0  0  0  0  0  0  0  0  0  0  0  0
   13.5227   -0.0694    0.0000 H   0  0  0  0  0  0  0  0  0  0  0  0
  1  2  1  0  0  0  0
  2  3  1  0  0  0  0
  3  4  1  0  0  0  0
  4  5  1  0  0  0  0
  5  6  1  0  0  0  0
  6  7  1  0  0  0  0
  7  8  1  0  0  0  0
  8  9  1  0  0  0  0
  9 10  1  0  0  0  0
 10 11  1  0  0  0  0
 11 12  1  0  0  0  0
 12 13  1  0  0  0  0
 13 14  1  0  0  0  0
 14 15  1  0  0  0  0
 15 16  1  0  0  0  0
 16 17  1  0  0  0  0
 17 18  1  0  0  0  0
 18 19  1  0  0  0  0
 19 20  1  0  0  0  0
 20 21  1  0  0  0  0
 19 22  1  0  0  0  0
 22 23  1  0  0  0  0
 19 24  1  0  0  0  0
 24 25  1  0  0  0  0
  1 26  1  0  0  0  0
  1 27  1  0  0  0  0
  1 28  1  0  0  0  0
  2 29  1  0  0  0  0
  2 30  1  0  0  0  0
  3 31  1  0  0  0  0
  3 32  1  0  0  0  0
  4 33  1  0  0  0  0
  4 34  1  0  0  0  0
  5 35  1  0  0  0  0
  5 36  1  0  0  0  0
  6 37  1  0  0  0  0
  6 38  1  0  0  0  0
  7 39  1  0  0  0  0
  7 40  1  0  0  0  0
  8 41  1  0  0  0  0
  8 42  1  0  0  0  0
  9 43  1  0  0  0  0
  9 44  1  0  0  0  0
 10 45  1  0  0  0  0
 10 46  1  0  0  0  0
 11 47  1  0  0  0  0
 11 48  1  0  0  0  0
 12 49  1  0  0  0  0
 12 50  1  0  0  0  0
 13 51  1  0  0  0  0
 13 52  1  0  0  0  0
 14 53  1  0  0  0  0
 14 54  1  0  0  0  0
 15 55  1  0  0  0  0
 15 56  1  0  0  0  0
 16 57  1  0  0  0  0
 16 58  1  0  0  0  0
 17 59  1  0  0  0  0
 17 60  1  0  0  0  0
 18 61  1  0  0  0  0
 18 62  1  0  0  0  0
 21 63  1  0  0  0  0
 21 64  1  0  0  0  0
 21 65  1  0  0  0  0
 23 66  1  0  0  0  0
 23 67  1  0  0  0  0
 23 68  1  0  0  0  0
 25 69  1  0  0  0  0
 25 70  1  0  0  0  0
 25 71  1  0  0  0  0
M  END
>  <id_input>
5153

>  <InChIKey>
SLYCYWCVSGPDFR-UHFFFAOYSA-N

>  <substance_name>
trimethoxy(octadecyl)silane

>  <casrn>
3069-42-9

>  <Molecular weight>
374.67364501953125

>  <guideline>
OECD Guideline 404 (Acute Dermal Irritation / Corrosion)

>  <species>
rabbit

>  <type_of_coverage>
semiocclusive

>  <max_duration(hrs)>
4.0

>  <vehicle>
unchanged (no vehicle)

>  <edema/ erythema score>
0.0

>  <max_score>
4.0

>  <reversibility>
0.0

>  <Outcome>
0

>  <StandardizerResult>
Remove Explicit Hydrogens (ID: RemoveExplicitH)
Clear Stereo (ID: ClearStereo)
Wedge Clean (ID: WedgeClean)
Mesomerize (ID: Mesomerize)
Tautomerize (ID: Tautomerize)
Add Explicit Hydrogens (ID: AddExplicitH)
Neutralize (ID: Neutralize)
Clean 2D (ID: Clean2D)


$$$$

  Mrv1812 02121911042D          

 50 49  0  0  0  0            999 V2000
    4.2270    0.4386    0.0000 C   0  0  0  0  0  0  0  0  0  0  0  0
    4.2270    1.2636    0.0000 C   0  0  0  0  0  0  0  0  0  0  0  0
    3.5125    1.6761    0.0000 O   0  0  0  0  0  0  0  0  0  0  0  0
    2.7980    1.2636    0.0000 Si  0  0  0  0  0  4  0  0  0  0  0  0
    2.0836    0.8511    0.0000 C   0  0  0  0  0  0  0  0  0  0  0  0
    1.3691    1.2636    0.0000 C   0  0  0  0  0  0  0  0  0  0  0  0
    0.6546    0.8511    0.0000 C   0  0  0  0  0  0  0  0  0  0  0  0
    1.3691    2.0886    0.0000 C   0  0  0  0  0  0  0  0  0  0  0  0
    0.6546    2.5011    0.0000 C   0  0  0  0  0  0  0  0  0  0  0  0
   -0.0598    2.9136    0.0000 C   0  0  0  0  0  0  0  0  0  0  0  0
    1.0671    3.2156    0.0000 C   0  0  0  0  0  0  0  0  0  0  0  0
    0.2421    1.7866    0.0000 C   0  0  0  0  0  0  0  0  0  0  0  0
    2.3855    1.9781    0.0000 O   0  0  0  0  0  0  0  0  0  0  0  0
    2.7980    2.6925    0.0000 C   0  0  0  0  0  0  0  0  0  0  0  0
    3.6230    2.6925    0.0000 C   0  0  0  0  0  0  0  0  0  0  0  0
    3.2105    0.5491    0.0000 O   0  0  0  0  0  0  0  0  0  0  0  0
    2.7980   -0.1653    0.0000 C   0  0  0  0  0  0  0  0  0  0  0  0
    1.9730   -0.1653    0.0000 C   0  0  0  0  0  0  0  0  0  0  0  0
    3.4020    0.4386    0.0000 H   0  0  0  0  0  0  0  0  0  0  0  0
    4.2270   -0.3864    0.0000 H   0  0  0  0  0  0  0  0  0  0  0  0
    5.0520    0.4386    0.0000 H   0  0  0  0  0  0  0  0  0  0  0  0
    5.0506    1.3116    0.0000 H   0  0  0  0  0  0  0  0  0  0  0  0
    4.6803    1.9529    0.0000 H   0  0  0  0  0  0  0  0  0  0  0  0
    1.7133    0.1138    0.0000 H   0  0  0  0  0  0  0  0  0  0  0  0
    2.4538    0.1138    0.0000 H   0  0  0  0  0  0  0  0  0  0  0  0
    1.3691    0.4386    0.0000 H   0  0  0  0  0  0  0  0  0  0  0  0
    0.4411    1.6480    0.0000 H   0  0  0  0  0  0  0  0  0  0  0  0
   -0.1704    0.8511    0.0000 H   0  0  0  0  0  0  0  0  0  0  0  0
    0.4411    0.0542    0.0000 H   0  0  0  0  0  0  0  0  0  0  0  0
    2.1927    2.1366    0.0000 H   0  0  0  0  0  0  0  0  0  0  0  0
    1.8224    2.7779    0.0000 H   0  0  0  0  0  0  0  0  0  0  0  0
    0.3527    3.6281    0.0000 H   0  0  0  0  0  0  0  0  0  0  0  0
   -0.7743    3.3261    0.0000 H   0  0  0  0  0  0  0  0  0  0  0  0
   -0.4723    2.1991    0.0000 H   0  0  0  0  0  0  0  0  0  0  0  0
    1.8643    3.4281    0.0000 H   0  0  0  0  0  0  0  0  0  0  0  0
    1.4802    3.9297    0.0000 H   0  0  0  0  0  0  0  0  0  0  0  0
    0.8539    4.0125    0.0000 H   0  0  0  0  0  0  0  0  0  0  0  0
   -0.5591    1.5901    0.0000 H   0  0  0  0  0  0  0  0  0  0  0  0
   -0.2003    1.0903    0.0000 H   0  0  0  0  0  0  0  0  0  0  0  0
    0.4045    0.9778    0.0000 H   0  0  0  0  0  0  0  0  0  0  0  0
    2.8476    3.5160    0.0000 H   0  0  0  0  0  0  0  0  0  0  0  0
    2.2045    3.2655    0.0000 H   0  0  0  0  0  0  0  0  0  0  0  0
    3.6230    1.8675    0.0000 H   0  0  0  0  0  0  0  0  0  0  0  0
    4.4480    2.6925    0.0000 H   0  0  0  0  0  0  0  0  0  0  0  0
    3.6230    3.5175    0.0000 H   0  0  0  0  0  0  0  0  0  0  0  0
    2.7621   -0.9896    0.0000 H   0  0  0  0  0  0  0  0  0  0  0  0
    3.4063   -0.7227    0.0000 H   0  0  0  0  0  0  0  0  0  0  0  0
    1.1639   -0.3263    0.0000 H   0  0  0  0  0  0  0  0  0  0  0  0
    1.6573   -0.9275    0.0000 H   0  0  0  0  0  0  0  0  0  0  0  0
    2.4314   -0.8513    0.0000 H   0  0  0  0  0  0  0  0  0  0  0  0
  1  2  1  0  0  0  0
  2  3  1  0  0  0  0
  3  4  1  0  0  0  0
  4  5  1  0  0  0  0
  5  6  1  0  0  0  0
  6  7  1  0  0  0  0
  6  8  1  0  0  0  0
  8  9  1  0  0  0  0
  9 10  1  0  0  0  0
  9 11  1  0  0  0  0
  9 12  1  0  0  0  0
  4 13  1  0  0  0  0
 13 14  1  0  0  0  0
 14 15  1  0  0  0  0
  4 16  1  0  0  0  0
 16 17  1  0  0  0  0
 17 18  1  0  0  0  0
  1 19  1  0  0  0  0
  1 20  1  0  0  0  0
  1 21  1  0  0  0  0
  2 22  1  0  0  0  0
  2 23  1  0  0  0  0
  5 24  1  0  0  0  0
  5 25  1  0  0  0  0
  6 26  1  0  0  0  0
  7 27  1  0  0  0  0
  7 28  1  0  0  0  0
  7 29  1  0  0  0  0
  8 30  1  0  0  0  0
  8 31  1  0  0  0  0
 10 32  1  0  0  0  0
 10 33  1  0  0  0  0
 10 34  1  0  0  0  0
 11 35  1  0  0  0  0
 11 36  1  0  0  0  0
 11 37  1  0  0  0  0
 12 38  1  0  0  0  0
 12 39  1  0  0  0  0
 12 40  1  0  0  0  0
 14 41  1  0  0  0  0
 14 42  1  0  0  0  0
 15 43  1  0  0  0  0
 15 44  1  0  0  0  0
 15 45  1  0  0  0  0
 17 46  1  0  0  0  0
 17 47  1  0  0  0  0
 18 48  1  0  0  0  0
 18 49  1  0  0  0  0
 18 50  1  0  0  0  0
M  END
>  <id_input>
5128

>  <InChIKey>
UWZSHGZRSZICIW-UHFFFAOYSA-N

>  <substance_name>
triethoxy(2,4,4-trimethylpentyl)silane

>  <casrn>
35435-21-3

>  <Molecular weight>
276.4875793457031

>  <guideline>
OECD Guideline 404 (Acute Dermal Irritation / Corrosion)

>  <species>
rabbit

>  <type_of_coverage>
semiocclusive

>  <max_duration(hrs)>
4.0

>  <vehicle>
unchanged (no vehicle)

>  <edema/ erythema score>
1.3

>  <max_score>
3.0

>  <reversibility>
0.0

>  <Outcome>
0

>  <StandardizerResult>
Remove Explicit Hydrogens (ID: RemoveExplicitH)
Clear Stereo (ID: ClearStereo)
Wedge Clean (ID: WedgeClean)
Mesomerize (ID: Mesomerize)
Tautomerize (ID: Tautomerize)
Add Explicit Hydrogens (ID: AddExplicitH)
Neutralize (ID: Neutralize)
Clean 2D (ID: Clean2D)


$$$$

  Mrv1812 02121911042D          

 59 58  0  0  0  0            999 V2000
   -0.1604    0.7691    0.0000 C   0  0  0  0  0  0  0  0  0  0  0  0
    0.5541    0.3566    0.0000 C   0  0  0  0  0  0  0  0  0  0  0  0
    1.2685    0.7691    0.0000 C   0  0  0  0  0  0  0  0  0  0  0  0
    1.9830    0.3566    0.0000 C   0  0  0  0  0  0  0  0  0  0  0  0
    2.6975    0.7691    0.0000 C   0  0  0  0  0  0  0  0  0  0  0  0
    3.4119    0.3566    0.0000 C   0  0  0  0  0  0  0  0  0  0  0  0
    4.1264    0.7691    0.0000 C   0  0  0  0  0  0  0  0  0  0  0  0
    4.8409    0.3566    0.0000 C   0  0  0  0  0  0  0  0  0  0  0  0
    5.5554    0.7691    0.0000 C   0  0  0  0  0  0  0  0  0  0  0  0
    6.2698    0.3566    0.0000 C   0  0  0  0  0  0  0  0  0  0  0  0
    6.9843    0.7691    0.0000 C   0  0  0  0  0  0  0  0  0  0  0  0
    7.6988    0.3566    0.0000 C   0  0  0  0  0  0  0  0  0  0  0  0
    8.4132    0.7691    0.0000 C   0  0  0  0  0  0  0  0  0  0  0  0
    9.1277    0.3566    0.0000 C   0  0  0  0  0  0  0  0  0  0  0  0
    9.8422    0.7691    0.0000 C   0  0  0  0  0  0  0  0  0  0  0  0
   10.5567    0.3566    0.0000 C   0  0  0  0  0  0  0  0  0  0  0  0
   10.5567   -0.4684    0.0000 O   0  0  0  0  0  0  0  0  0  0  0  0
   11.2711    0.7691    0.0000 O   0  0  0  0  0  0  0  0  0  0  0  0
   11.9856    0.3566    0.0000 C   0  0  0  0  0  0  0  0  0  0  0  0
   12.7001    0.7691    0.0000 C   0  0  0  0  0  0  0  0  0  0  0  0
   11.9856   -0.4684    0.0000 C   0  0  0  0  0  0  0  0  0  0  0  0
    0.2521    1.4836    0.0000 H   0  0  0  0  0  0  0  0  0  0  0  0
   -0.8749    1.1816    0.0000 H   0  0  0  0  0  0  0  0  0  0  0  0
   -0.5729    0.0546    0.0000 H   0  0  0  0  0  0  0  0  0  0  0  0
    0.1838   -0.3807    0.0000 H   0  0  0  0  0  0  0  0  0  0  0  0
    0.9243   -0.3807    0.0000 H   0  0  0  0  0  0  0  0  0  0  0  0
    1.6388    1.5063    0.0000 H   0  0  0  0  0  0  0  0  0  0  0  0
    0.8983    1.5063    0.0000 H   0  0  0  0  0  0  0  0  0  0  0  0
    1.6127   -0.3807    0.0000 H   0  0  0  0  0  0  0  0  0  0  0  0
    2.3533   -0.3807    0.0000 H   0  0  0  0  0  0  0  0  0  0  0  0
    3.0677    1.5063    0.0000 H   0  0  0  0  0  0  0  0  0  0  0  0
    2.3272    1.5063    0.0000 H   0  0  0  0  0  0  0  0  0  0  0  0
    3.0417   -0.3807    0.0000 H   0  0  0  0  0  0  0  0  0  0  0  0
    3.7822   -0.3807    0.0000 H   0  0  0  0  0  0  0  0  0  0  0  0
    4.4967    1.5063    0.0000 H   0  0  0  0  0  0  0  0  0  0  0  0
    3.7562    1.5063    0.0000 H   0  0  0  0  0  0  0  0  0  0  0  0
    4.4706   -0.3807    0.0000 H   0  0  0  0  0  0  0  0  0  0  0  0
    5.2111   -0.3807    0.0000 H   0  0  0  0  0  0  0  0  0  0  0  0
    5.9256    1.5063    0.0000 H   0  0  0  0  0  0  0  0  0  0  0  0
    5.1851    1.5063    0.0000 H   0  0  0  0  0  0  0  0  0  0  0  0
    5.8996   -0.3807    0.0000 H   0  0  0  0  0  0  0  0  0  0  0  0
    6.6401   -0.3807    0.0000 H   0  0  0  0  0  0  0  0  0  0  0  0
    7.3546    1.5063    0.0000 H   0  0  0  0  0  0  0  0  0  0  0  0
    6.6140    1.5063    0.0000 H   0  0  0  0  0  0  0  0  0  0  0  0
    7.3285   -0.3807    0.0000 H   0  0  0  0  0  0  0  0  0  0  0  0
    8.0690   -0.3807    0.0000 H   0  0  0  0  0  0  0  0  0  0  0  0
    8.7835    1.5063    0.0000 H   0  0  0  0  0  0  0  0  0  0  0  0
    8.0430    1.5063    0.0000 H   0  0  0  0  0  0  0  0  0  0  0  0
    8.7575   -0.3807    0.0000 H   0  0  0  0  0  0  0  0  0  0  0  0
    9.4980   -0.3807    0.0000 H   0  0  0  0  0  0  0  0  0  0  0  0
   10.2124    1.5063    0.0000 H   0  0  0  0  0  0  0  0  0  0  0  0
    9.4719    1.5063    0.0000 H   0  0  0  0  0  0  0  0  0  0  0  0
   11.9856    1.1816    0.0000 H   0  0  0  0  0  0  0  0  0  0  0  0
   12.9136   -0.0278    0.0000 H   0  0  0  0  0  0  0  0  0  0  0  0
   13.5251    0.7691    0.0000 H   0  0  0  0  0  0  0  0  0  0  0  0
   12.9136    1.5660    0.0000 H   0  0  0  0  0  0  0  0  0  0  0  0
   11.1606   -0.4684    0.0000 H   0  0  0  0  0  0  0  0  0  0  0  0
   11.9856   -1.2934    0.0000 H   0  0  0  0  0  0  0  0  0  0  0  0
   12.8106   -0.4684    0.0000 H   0  0  0  0  0  0  0  0  0  0  0  0
  1  2  1  0  0  0  0
  2  3  1  0  0  0  0
  3  4  1  0  0  0  0
  4  5  1  0  0  0  0
  5  6  1  0  0  0  0
  6  7  1  0  0  0  0
  7  8  1  0  0  0  0
  8  9  1  0  0  0  0
  9 10  1  0  0  0  0
 10 11  1  0  0  0  0
 11 12  1  0  0  0  0
 12 13  1  0  0  0  0
 13 14  1  0  0  0  0
 14 15  1  0  0  0  0
 15 16  1  0  0  0  0
 16 17  2  0  0  0  0
 16 18  1  0  0  0  0
 18 19  1  0  0  0  0
 19 20  1  0  0  0  0
 19 21  1  0  0  0  0
  1 22  1  0  0  0  0
  1 23  1  0  0  0  0
  1 24  1  0  0  0  0
  2 25  1  0  0  0  0
  2 26  1  0  0  0  0
  3 27  1  0  0  0  0
  3 28  1  0  0  0  0
  4 29  1  0  0  0  0
  4 30  1  0  0  0  0
  5 31  1  0  0  0  0
  5 32  1  0  0  0  0
  6 33  1  0  0  0  0
  6 34  1  0  0  0  0
  7 35  1  0  0  0  0
  7 36  1  0  0  0  0
  8 37  1  0  0  0  0
  8 38  1  0  0  0  0
  9 39  1  0  0  0  0
  9 40  1  0  0  0  0
 10 41  1  0  0  0  0
 10 42  1  0  0  0  0
 11 43  1  0  0  0  0
 11 44  1  0  0  0  0
 12 45  1  0  0  0  0
 12 46  1  0  0  0  0
 13 47  1  0  0  0  0
 13 48  1  0  0  0  0
 14 49  1  0  0  0  0
 14 50  1  0  0  0  0
 15 51  1  0  0  0  0
 15 52  1  0  0  0  0
 19 53  1  0  0  0  0
 20 54  1  0  0  0  0
 20 55  1  0  0  0  0
 20 56  1  0  0  0  0
 21 57  1  0  0  0  0
 21 58  1  0  0  0  0
 21 59  1  0  0  0  0
M  END
>  <id_input>
4843

>  <InChIKey>
XUGNVMKQXJXZCD-UHFFFAOYSA-N

>  <substance_name>
propan-2-yl hexadecanoate

>  <casrn>
142-91-6

>  <Molecular weight>
298.5038146972656

>  <guideline>
OECD Guideline 404 (Acute Dermal Irritation / Corrosion)

>  <species>
rabbit

>  <type_of_coverage>
semiocclusive

>  <max_duration(hrs)>
4.0

>  <vehicle>
unchanged (no vehicle)

>  <edema/ erythema score>
1.22

>  <max_score>
4.0

>  <reversibility>
0.0

>  <Outcome>
0

>  <StandardizerResult>
Remove Explicit Hydrogens (ID: RemoveExplicitH)
Clear Stereo (ID: ClearStereo)
Wedge Clean (ID: WedgeClean)
Mesomerize (ID: Mesomerize)
Tautomerize (ID: Tautomerize)
Add Explicit Hydrogens (ID: AddExplicitH)
Neutralize (ID: Neutralize)
Clean 2D (ID: Clean2D)


$$$$

  Mrv1812 02121911042D          

 47 46  0  0  0  0            999 V2000
   -1.2554   -1.5305    0.0000 C   0  0  0  0  0  0  0  0  0  0  0  0
   -0.5409   -1.1180    0.0000 C   0  0  0  0  0  0  0  0  0  0  0  0
    0.1735   -1.5305    0.0000 C   0  0  0  0  0  0  0  0  0  0  0  0
    0.1735   -2.3555    0.0000 C   0  0  0  0  0  0  0  0  0  0  0  0
    0.8880   -1.1180    0.0000 C   0  0  0  0  0  0  0  0  0  0  0  0
    1.6025   -1.5305    0.0000 C   0  0  0  0  0  0  0  0  0  0  0  0
    2.3170   -1.1180    0.0000 C   0  0  0  0  0  0  0  0  0  0  0  0
    3.0314   -1.5305    0.0000 C   0  0  0  0  0  0  0  0  0  0  0  0
    3.0314   -2.3555    0.0000 C   0  0  0  0  0  0  0  0  0  0  0  0
    3.7459   -1.1180    0.0000 C   0  0  0  0  0  0  0  0  0  0  0  0
    4.4604   -1.5305    0.0000 C   0  0  0  0  0  0  0  0  0  0  0  0
    5.1748   -1.1180    0.0000 C   0  0  0  0  0  0  0  0  0  0  0  0
    5.8893   -1.5305    0.0000 C   0  0  0  0  0  0  0  0  0  0  0  0
    6.6038   -1.1180    0.0000 C   0  0  0  0  0  0  0  0  0  0  0  0
    5.8893   -2.3555    0.0000 C   0  0  0  0  0  0  0  0  0  0  0  0
   -1.6679   -0.8160    0.0000 H   0  0  0  0  0  0  0  0  0  0  0  0
   -1.9699   -1.9430    0.0000 H   0  0  0  0  0  0  0  0  0  0  0  0
   -0.8429   -2.2449    0.0000 H   0  0  0  0  0  0  0  0  0  0  0  0
   -0.1707   -0.3807    0.0000 H   0  0  0  0  0  0  0  0  0  0  0  0
   -0.9112   -0.3807    0.0000 H   0  0  0  0  0  0  0  0  0  0  0  0
   -0.5409   -1.9430    0.0000 H   0  0  0  0  0  0  0  0  0  0  0  0
   -0.4098   -2.9388    0.0000 H   0  0  0  0  0  0  0  0  0  0  0  0
    0.5860   -3.0699    0.0000 H   0  0  0  0  0  0  0  0  0  0  0  0
    0.9704   -2.1419    0.0000 H   0  0  0  0  0  0  0  0  0  0  0  0
    1.2583   -0.3807    0.0000 H   0  0  0  0  0  0  0  0  0  0  0  0
    0.5178   -0.3807    0.0000 H   0  0  0  0  0  0  0  0  0  0  0  0
    2.0993   -2.1891    0.0000 H   0  0  0  0  0  0  0  0  0  0  0  0
    1.6025   -0.7055    0.0000 H   0  0  0  0  0  0  0  0  0  0  0  0
    2.9489   -0.5877    0.0000 H   0  0  0  0  0  0  0  0  0  0  0  0
    2.4602   -0.3055    0.0000 H   0  0  0  0  0  0  0  0  0  0  0  0
    2.3170   -1.9430    0.0000 H   0  0  0  0  0  0  0  0  0  0  0  0
    2.6178   -3.0693    0.0000 H   0  0  0  0  0  0  0  0  0  0  0  0
    3.5611   -2.9880    0.0000 H   0  0  0  0  0  0  0  0  0  0  0  0
    3.8068   -2.0737    0.0000 H   0  0  0  0  0  0  0  0  0  0  0  0
    4.4690   -0.7207    0.0000 H   0  0  0  0  0  0  0  0  0  0  0  0
    3.7808   -0.2937    0.0000 H   0  0  0  0  0  0  0  0  0  0  0  0
    4.5536   -2.3502    0.0000 H   0  0  0  0  0  0  0  0  0  0  0  0
    5.1970   -1.9019    0.0000 H   0  0  0  0  0  0  0  0  0  0  0  0
    5.8046   -0.5850    0.0000 H   0  0  0  0  0  0  0  0  0  0  0  0
    5.3127   -0.3046    0.0000 H   0  0  0  0  0  0  0  0  0  0  0  0
    6.6038   -1.9430    0.0000 H   0  0  0  0  0  0  0  0  0  0  0  0
    7.3115   -1.5419    0.0000 H   0  0  0  0  0  0  0  0  0  0  0  0
    7.3312   -0.7287    0.0000 H   0  0  0  0  0  0  0  0  0  0  0  0
    6.6437   -0.2939    0.0000 H   0  0  0  0  0  0  0  0  0  0  0  0
    5.1580   -2.7374    0.0000 H   0  0  0  0  0  0  0  0  0  0  0  0
    5.8660   -3.1801    0.0000 H   0  0  0  0  0  0  0  0  0  0  0  0
    6.5979   -2.7780    0.0000 H   0  0  0  0  0  0  0  0  0  0  0  0
  1  2  1  0  0  0  0
  2  3  1  0  0  0  0
  3  4  1  0  0  0  0
  3  5  1  0  0  0  0
  5  6  1  0  0  0  0
  6  7  1  0  0  0  0
  7  8  1  0  0  0  0
  8  9  1  0  0  0  0
  8 10  1  0  0  0  0
 10 11  1  0  0  0  0
 11 12  1  0  0  0  0
 12 13  1  0  0  0  0
 13 14  1  0  0  0  0
 13 15  1  0  0  0  0
  1 16  1  0  0  0  0
  1 17  1  0  0  0  0
  1 18  1  0  0  0  0
  2 19  1  0  0  0  0
  2 20  1  0  0  0  0
  3 21  1  0  0  0  0
  4 22  1  0  0  0  0
  4 23  1  0  0  0  0
  4 24  1  0  0  0  0
  5 25  1  0  0  0  0
  5 26  1  0  0  0  0
  6 27  1  0  0  0  0
  6 28  1  0  0  0  0
  7 29  1  0  0  0  0
  7 30  1  0  0  0  0
  8 31  1  0  0  0  0
  9 32  1  0  0  0  0
  9 33  1  0  0  0  0
  9 34  1  0  0  0  0
 10 35  1  0  0  0  0
 10 36  1  0  0  0  0
 11 37  1  0  0  0  0
 11 38  1  0  0  0  0
 12 39  1  0  0  0  0
 12 40  1  0  0  0  0
 13 41  1  0  0  0  0
 14 42  1  0  0  0  0
 14 43  1  0  0  0  0
 14 44  1  0  0  0  0
 15 45  1  0  0  0  0
 15 46  1  0  0  0  0
 15 47  1  0  0  0  0
M  END
>  <id_input>
2140

>  <InChIKey>
YFHFHLSMISYUAQ-UHFFFAOYSA-N

>  <substance_name>
2,6,10-trimethyldodecane

>  <casrn>
3891-98-3

>  <Molecular weight>
212.41458129882812

>  <guideline>
EPA OPPTS 870.2500 (Acute Dermal Irritation)

>  <species>
rabbit

>  <type_of_coverage>
semiocclusive

>  <max_duration(hrs)>
4.0

>  <vehicle>
unchanged (no vehicle)

>  <edema/ erythema score>
0.91

>  <max_score>
1.0

>  <reversibility>
0.0

>  <Outcome>
0

>  <StandardizerResult>
Remove Explicit Hydrogens (ID: RemoveExplicitH)
Clear Stereo (ID: ClearStereo)
Wedge Clean (ID: WedgeClean)
Mesomerize (ID: Mesomerize)
Tautomerize (ID: Tautomerize)
Add Explicit Hydrogens (ID: AddExplicitH)
Neutralize (ID: Neutralize)
Clean 2D (ID: Clean2D)


$$$$

  Mrv1812 02121911042D          

 53 52  0  0  0  0            999 V2000
   -0.1786    0.8095    0.0000 C   0  0  0  0  0  0  0  0  0  0  0  0
    0.5359    0.3970    0.0000 C   0  0  0  0  0  0  0  0  0  0  0  0
    1.2503    0.8095    0.0000 C   0  0  0  0  0  0  0  0  0  0  0  0
    1.9648    0.3970    0.0000 C   0  0  0  0  0  0  0  0  0  0  0  0
    2.6793    0.8095    0.0000 C   0  0  0  0  0  0  0  0  0  0  0  0
    3.3938    0.3970    0.0000 C   0  0  0  0  0  0  0  0  0  0  0  0
    4.1082    0.8095    0.0000 C   0  0  0  0  0  0  0  0  0  0  0  0
    4.8227    0.3970    0.0000 C   0  0  0  0  0  0  0  0  0  0  0  0
    5.5372    0.8095    0.0000 C   0  0  0  0  0  0  0  0  0  0  0  0
    6.2516    0.3970    0.0000 C   0  0  0  0  0  0  0  0  0  0  0  0
    6.9661    0.8095    0.0000 C   0  0  0  0  0  0  0  0  0  0  0  0
    7.6806    0.3970    0.0000 C   0  0  0  0  0  0  0  0  0  0  0  0
    8.3951    0.8095    0.0000 C   0  0  0  0  0  0  0  0  0  0  0  0
    9.1095    0.3970    0.0000 C   0  0  0  0  0  0  0  0  0  0  0  0
    9.1095   -0.4280    0.0000 O   0  0  0  0  0  0  0  0  0  0  0  0
    9.8240    0.8095    0.0000 O   0  0  0  0  0  0  0  0  0  0  0  0
   10.5385    0.3970    0.0000 C   0  0  0  0  0  0  0  0  0  0  0  0
   11.2529    0.8095    0.0000 C   0  0  0  0  0  0  0  0  0  0  0  0
   10.5385   -0.4280    0.0000 C   0  0  0  0  0  0  0  0  0  0  0  0
    0.2339    1.5240    0.0000 H   0  0  0  0  0  0  0  0  0  0  0  0
   -0.8931    1.2220    0.0000 H   0  0  0  0  0  0  0  0  0  0  0  0
   -0.5911    0.0950    0.0000 H   0  0  0  0  0  0  0  0  0  0  0  0
    0.1656   -0.3403    0.0000 H   0  0  0  0  0  0  0  0  0  0  0  0
    0.9061   -0.3403    0.0000 H   0  0  0  0  0  0  0  0  0  0  0  0
    1.6206    1.5467    0.0000 H   0  0  0  0  0  0  0  0  0  0  0  0
    0.8801    1.5467    0.0000 H   0  0  0  0  0  0  0  0  0  0  0  0
    1.5946   -0.3403    0.0000 H   0  0  0  0  0  0  0  0  0  0  0  0
    2.3351   -0.3403    0.0000 H   0  0  0  0  0  0  0  0  0  0  0  0
    3.0495    1.5467    0.0000 H   0  0  0  0  0  0  0  0  0  0  0  0
    2.3090    1.5467    0.0000 H   0  0  0  0  0  0  0  0  0  0  0  0
    3.0235   -0.3403    0.0000 H   0  0  0  0  0  0  0  0  0  0  0  0
    3.7640   -0.3403    0.0000 H   0  0  0  0  0  0  0  0  0  0  0  0
    4.4785    1.5467    0.0000 H   0  0  0  0  0  0  0  0  0  0  0  0
    3.7380    1.5467    0.0000 H   0  0  0  0  0  0  0  0  0  0  0  0
    4.4524   -0.3403    0.0000 H   0  0  0  0  0  0  0  0  0  0  0  0
    5.1930   -0.3403    0.0000 H   0  0  0  0  0  0  0  0  0  0  0  0
    5.9074    1.5467    0.0000 H   0  0  0  0  0  0  0  0  0  0  0  0
    5.1669    1.5467    0.0000 H   0  0  0  0  0  0  0  0  0  0  0  0
    5.8814   -0.3403    0.0000 H   0  0  0  0  0  0  0  0  0  0  0  0
    6.6219   -0.3403    0.0000 H   0  0  0  0  0  0  0  0  0  0  0  0
    7.3364    1.5467    0.0000 H   0  0  0  0  0  0  0  0  0  0  0  0
    6.5959    1.5467    0.0000 H   0  0  0  0  0  0  0  0  0  0  0  0
    7.3103   -0.3403    0.0000 H   0  0  0  0  0  0  0  0  0  0  0  0
    8.0508   -0.3403    0.0000 H   0  0  0  0  0  0  0  0  0  0  0  0
    8.7653    1.5467    0.0000 H   0  0  0  0  0  0  0  0  0  0  0  0
    8.0248    1.5467    0.0000 H   0  0  0  0  0  0  0  0  0  0  0  0
   10.5385    1.2220    0.0000 H   0  0  0  0  0  0  0  0  0  0  0  0
   11.4665    0.0126    0.0000 H   0  0  0  0  0  0  0  0  0  0  0  0
   12.0779    0.8095    0.0000 H   0  0  0  0  0  0  0  0  0  0  0  0
   11.4665    1.6064    0.0000 H   0  0  0  0  0  0  0  0  0  0  0  0
    9.7135   -0.4280    0.0000 H   0  0  0  0  0  0  0  0  0  0  0  0
   10.5385   -1.2530    0.0000 H   0  0  0  0  0  0  0  0  0  0  0  0
   11.3635   -0.4280    0.0000 H   0  0  0  0  0  0  0  0  0  0  0  0
  1  2  1  0  0  0  0
  2  3  1  0  0  0  0
  3  4  1  0  0  0  0
  4  5  1  0  0  0  0
  5  6  1  0  0  0  0
  6  7  1  0  0  0  0
  7  8  1  0  0  0  0
  8  9  1  0  0  0  0
  9 10  1  0  0  0  0
 10 11  1  0  0  0  0
 11 12  1  0  0  0  0
 12 13  1  0  0  0  0
 13 14  1  0  0  0  0
 14 15  2  0  0  0  0
 14 16  1  0  0  0  0
 16 17  1  0  0  0  0
 17 18  1  0  0  0  0
 17 19  1  0  0  0  0
  1 20  1  0  0  0  0
  1 21  1  0  0  0  0
  1 22  1  0  0  0  0
  2 23  1  0  0  0  0
  2 24  1  0  0  0  0
  3 25  1  0  0  0  0
  3 26  1  0  0  0  0
  4 27  1  0  0  0  0
  4 28  1  0  0  0  0
  5 29  1  0  0  0  0
  5 30  1  0  0  0  0
  6 31  1  0  0  0  0
  6 32  1  0  0  0  0
  7 33  1  0  0  0  0
  7 34  1  0  0  0  0
  8 35  1  0  0  0  0
  8 36  1  0  0  0  0
  9 37  1  0  0  0  0
  9 38  1  0  0  0  0
 10 39  1  0  0  0  0
 10 40  1  0  0  0  0
 11 41  1  0  0  0  0
 11 42  1  0  0  0  0
 12 43  1  0  0  0  0
 12 44  1  0  0  0  0
 13 45  1  0  0  0  0
 13 46  1  0  0  0  0
 17 47  1  0  0  0  0
 18 48  1  0  0  0  0
 18 49  1  0  0  0  0
 18 50  1  0  0  0  0
 19 51  1  0  0  0  0
 19 52  1  0  0  0  0
 19 53  1  0  0  0  0
M  END
>  <id_input>
4844, 4845, 4846

>  <InChIKey>
AXISYYRBXTVTFY-UHFFFAOYSA-N

>  <substance_name>
propan-2-yl tetradecanoate

>  <casrn>
110-27-0

>  <Molecular weight>
270.4506530761719

>  <guideline>
OECD Guideline 404 (Acute Dermal Irritation / Corrosion)

>  <species>
rabbit

>  <type_of_coverage>
semiocclusive

>  <max_duration(hrs)>
4.0

>  <vehicle>
unchanged (no vehicle)

>  <edema/ erythema score>
1.1099999999999985

>  <max_score>
4.0

>  <reversibility>
0.0

>  <Outcome>
0

>  <StandardizerResult>
Remove Explicit Hydrogens (ID: RemoveExplicitH)
Clear Stereo (ID: ClearStereo)
Wedge Clean (ID: WedgeClean)
Mesomerize (ID: Mesomerize)
Tautomerize (ID: Tautomerize)
Add Explicit Hydrogens (ID: AddExplicitH)
Neutralize (ID: Neutralize)
Clean 2D (ID: Clean2D)


$$$$

  Mrv1812 02121911042D          

 20 20  0  0  0  0            999 V2000
    1.9648    0.7219    0.0000 C   0  0  0  0  0  0  0  0  0  0  0  0
    1.2503    1.1344    0.0000 O   0  0  0  0  0  0  0  0  0  0  0  0
    0.5359    0.7219    0.0000 C   0  0  0  0  0  0  0  0  0  0  0  0
   -0.1786    1.1344    0.0000 C   0  0  0  0  0  0  0  0  0  0  0  0
   -0.8931    0.7219    0.0000 C   0  0  0  0  0  0  0  0  0  0  0  0
   -0.8931   -0.1031    0.0000 C   0  0  0  0  0  0  0  0  0  0  0  0
   -1.6076   -0.5156    0.0000 O   0  0  0  0  0  0  0  0  0  0  0  0
   -1.6076   -1.3406    0.0000 C   0  0  0  0  0  0  0  0  0  0  0  0
   -0.1786   -0.5156    0.0000 C   0  0  0  0  0  0  0  0  0  0  0  0
    0.5359   -0.1031    0.0000 C   0  0  0  0  0  0  0  0  0  0  0  0
    1.5523    0.0074    0.0000 H   0  0  0  0  0  0  0  0  0  0  0  0
    2.6793    0.3094    0.0000 H   0  0  0  0  0  0  0  0  0  0  0  0
    2.3773    1.4364    0.0000 H   0  0  0  0  0  0  0  0  0  0  0  0
   -0.1786    1.9594    0.0000 H   0  0  0  0  0  0  0  0  0  0  0  0
   -1.6076    1.1344    0.0000 H   0  0  0  0  0  0  0  0  0  0  0  0
   -2.4326   -1.3406    0.0000 H   0  0  0  0  0  0  0  0  0  0  0  0
   -1.6076   -2.1656    0.0000 H   0  0  0  0  0  0  0  0  0  0  0  0
   -0.7826   -1.3406    0.0000 H   0  0  0  0  0  0  0  0  0  0  0  0
   -0.1786   -1.3406    0.0000 H   0  0  0  0  0  0  0  0  0  0  0  0
    1.2503   -0.5156    0.0000 H   0  0  0  0  0  0  0  0  0  0  0  0
  1  2  1  0  0  0  0
  2  3  1  0  0  0  0
  4  3  4  0  0  0  0
  5  4  4  0  0  0  0
  6  5  4  0  0  0  0
  6  7  1  0  0  0  0
  7  8  1  0  0  0  0
  9  6  4  0  0  0  0
 10  9  4  0  0  0  0
  3 10  4  0  0  0  0
  1 11  1  0  0  0  0
  1 12  1  0  0  0  0
  1 13  1  0  0  0  0
  4 14  1  0  0  0  0
  5 15  1  0  0  0  0
  8 16  1  0  0  0  0
  8 17  1  0  0  0  0
  8 18  1  0  0  0  0
  9 19  1  0  0  0  0
 10 20  1  0  0  0  0
M  END
>  <id_input>
1813, 1814

>  <InChIKey>
OHBQPCCCRFSCAX-UHFFFAOYSA-N

>  <substance_name>
1,4-dimethoxybenzene

>  <casrn>
150-78-7

>  <Molecular weight>
138.16380310058594

>  <guideline>
OECD Guideline 404 (Acute Dermal Irritation / Corrosion)

>  <species>
rabbit

>  <type_of_coverage>
semiocclusive

>  <max_duration(hrs)>
4.0

>  <vehicle>
other: purified water

>  <edema/ erythema score>
0.0

>  <max_score>
4.0

>  <reversibility>
0.0

>  <Outcome>
0

>  <StandardizerResult>
Remove Explicit Hydrogens (ID: RemoveExplicitH)
Dearomatize (ID: Dearomatize)
Clear Stereo (ID: ClearStereo)
Wedge Clean (ID: WedgeClean)
Mesomerize (ID: Mesomerize)
Tautomerize (ID: Tautomerize)
Aromatize (ID: Aromatize)
Add Explicit Hydrogens (ID: AddExplicitH)
Neutralize (ID: Neutralize)
Clean 2D (ID: Clean2D)


$$$$

  Mrv1812 02121911042D          

 29 28  0  0  0  0            999 V2000
    4.4905    1.5698    0.0000 C   0  0  0  0  0  0  0  0  0  0  0  0
    3.7760    1.1573    0.0000 C   0  0  0  0  0  0  0  0  0  0  0  0
    3.0615    1.5698    0.0000 O   0  0  0  0  0  0  0  0  0  0  0  0
    2.3471    1.1573    0.0000 Si  0  0  0  0  0  4  0  0  0  0  0  0
    1.9346    1.8717    0.0000 C   0  0  0  0  0  0  0  0  0  0  0  0
    1.6326    0.7448    0.0000 O   0  0  0  0  0  0  0  0  0  0  0  0
    0.9181    1.1573    0.0000 C   0  0  0  0  0  0  0  0  0  0  0  0
    0.2036    0.7448    0.0000 C   0  0  0  0  0  0  0  0  0  0  0  0
    2.7596    0.4428    0.0000 O   0  0  0  0  0  0  0  0  0  0  0  0
    2.3471   -0.2717    0.0000 C   0  0  0  0  0  0  0  0  0  0  0  0
    1.5221   -0.2717    0.0000 C   0  0  0  0  0  0  0  0  0  0  0  0
    4.9030    0.8553    0.0000 H   0  0  0  0  0  0  0  0  0  0  0  0
    5.2049    1.9823    0.0000 H   0  0  0  0  0  0  0  0  0  0  0  0
    4.0780    2.2842    0.0000 H   0  0  0  0  0  0  0  0  0  0  0  0
    3.4057    0.4200    0.0000 H   0  0  0  0  0  0  0  0  0  0  0  0
    4.1463    0.4200    0.0000 H   0  0  0  0  0  0  0  0  0  0  0  0
    2.6490    2.2842    0.0000 H   0  0  0  0  0  0  0  0  0  0  0  0
    1.5221    2.5862    0.0000 H   0  0  0  0  0  0  0  0  0  0  0  0
    1.2201    1.4592    0.0000 H   0  0  0  0  0  0  0  0  0  0  0  0
    0.4159    1.8118    0.0000 H   0  0  0  0  0  0  0  0  0  0  0  0
    0.9181    0.3323    0.0000 H   0  0  0  0  0  0  0  0  0  0  0  0
   -0.0099    1.5417    0.0000 H   0  0  0  0  0  0  0  0  0  0  0  0
   -0.6214    0.7448    0.0000 H   0  0  0  0  0  0  0  0  0  0  0  0
   -0.0099   -0.0521    0.0000 H   0  0  0  0  0  0  0  0  0  0  0  0
    2.3950   -1.0953    0.0000 H   0  0  0  0  0  0  0  0  0  0  0  0
    3.0363   -0.7250    0.0000 H   0  0  0  0  0  0  0  0  0  0  0  0
    0.9138   -0.8290    0.0000 H   0  0  0  0  0  0  0  0  0  0  0  0
    1.5580   -1.0959    0.0000 H   0  0  0  0  0  0  0  0  0  0  0  0
    1.8378    0.4905    0.0000 H   0  0  0  0  0  0  0  0  0  0  0  0
  1  2  1  0  0  0  0
  2  3  1  0  0  0  0
  3  4  1  0  0  0  0
  4  5  1  0  0  0  0
  4  6  1  0  0  0  0
  6  7  1  0  0  0  0
  7  8  1  0  0  0  0
  4  9  1  0  0  0  0
  9 10  1  0  0  0  0
 10 11  1  0  0  0  0
  1 12  1  0  0  0  0
  1 13  1  0  0  0  0
  1 14  1  0  0  0  0
  2 15  1  0  0  0  0
  2 16  1  0  0  0  0
  5 17  1  0  0  0  0
  5 18  1  0  0  0  0
  5 19  1  0  0  0  0
  7 20  1  0  0  0  0
  7 21  1  0  0  0  0
  8 22  1  0  0  0  0
  8 23  1  0  0  0  0
  8 24  1  0  0  0  0
 10 25  1  0  0  0  0
 10 26  1  0  0  0  0
 11 27  1  0  0  0  0
 11 28  1  0  0  0  0
 11 29  1  0  0  0  0
M  END
>  <id_input>
5132

>  <InChIKey>
CPUDPFPXCZDNGI-UHFFFAOYSA-N

>  <substance_name>
triethoxy(methyl)silane

>  <casrn>
2031-67-6

>  <Molecular weight>
178.30152893066406

>  <guideline>
OECD Guideline 404 (Acute Dermal Irritation / Corrosion)

>  <species>
rabbit

>  <type_of_coverage>
semiocclusive

>  <max_duration(hrs)>
4.0

>  <vehicle>
unchanged (no vehicle)

>  <edema/ erythema score>
0.11

>  <max_score>
4.0

>  <reversibility>
0.0

>  <Outcome>
0

>  <StandardizerResult>
Remove Explicit Hydrogens (ID: RemoveExplicitH)
Clear Stereo (ID: ClearStereo)
Wedge Clean (ID: WedgeClean)
Mesomerize (ID: Mesomerize)
Tautomerize (ID: Tautomerize)
Add Explicit Hydrogens (ID: AddExplicitH)
Neutralize (ID: Neutralize)
Clean 2D (ID: Clean2D)


$$$$

  Mrv1812 02121911042D          

 15 14  0  0  0  0            999 V2000
    0.6978   -0.4685    0.0000 C   0  0  0  0  0  0  0  0  0  0  0  0
    0.6978    0.3565    0.0000 C   0  0  0  0  0  0  0  0  0  0  0  0
    0.6978    1.1815    0.0000 C   0  0  0  0  0  0  0  0  0  0  0  0
    1.5228    0.3565    0.0000 C   0  0  0  0  0  0  0  0  0  0  0  0
   -0.1272    0.3565    0.0000 O   0  0  0  0  0  0  0  0  0  0  0  0
   -0.1272   -0.4685    0.0000 H   0  0  0  0  0  0  0  0  0  0  0  0
    0.6978   -1.2935    0.0000 H   0  0  0  0  0  0  0  0  0  0  0  0
    1.5228   -0.4685    0.0000 H   0  0  0  0  0  0  0  0  0  0  0  0
    1.5228    1.1815    0.0000 H   0  0  0  0  0  0  0  0  0  0  0  0
    0.6978    2.0065    0.0000 H   0  0  0  0  0  0  0  0  0  0  0  0
   -0.1272    1.1815    0.0000 H   0  0  0  0  0  0  0  0  0  0  0  0
    2.1061   -0.2268    0.0000 H   0  0  0  0  0  0  0  0  0  0  0  0
    2.3478    0.3565    0.0000 H   0  0  0  0  0  0  0  0  0  0  0  0
    2.1061    0.9399    0.0000 H   0  0  0  0  0  0  0  0  0  0  0  0
   -0.9522    0.3565    0.0000 H   0  0  0  0  0  0  0  0  0  0  0  0
  1  2  1  0  0  0  0
  2  3  1  0  0  0  0
  2  4  1  0  0  0  0
  2  5  1  0  0  0  0
  1  6  1  0  0  0  0
  1  7  1  0  0  0  0
  1  8  1  0  0  0  0
  3  9  1  0  0  0  0
  3 10  1  0  0  0  0
  3 11  1  0  0  0  0
  4 12  1  0  0  0  0
  4 13  1  0  0  0  0
  4 14  1  0  0  0  0
  5 15  1  0  0  0  0
M  END
>  <id_input>
2567

>  <InChIKey>
DKGAVHZHDRPRBM-UHFFFAOYSA-N

>  <substance_name>
2-methylpropan-2-ol

>  <casrn>
75-65-0

>  <Molecular weight>
74.1216049194336

>  <species>
rabbit

>  <type_of_coverage>
not specified

>  <max_duration(hrs)>
24.0

>  <vehicle>
unchanged (no vehicle)

>  <edema/ erythema score>
0.7

>  <max_score>
2.0

>  <reversibility>
0.0

>  <Outcome>
0

>  <StandardizerResult>
Remove Explicit Hydrogens (ID: RemoveExplicitH)
Clear Stereo (ID: ClearStereo)
Wedge Clean (ID: WedgeClean)
Mesomerize (ID: Mesomerize)
Tautomerize (ID: Tautomerize)
Add Explicit Hydrogens (ID: AddExplicitH)
Neutralize (ID: Neutralize)
Clean 2D (ID: Clean2D)


$$$$

  Mrv1812 02121911042D          

 15 15  0  0  0  0            999 V2000
    0.6280    0.4749    0.0000 C   0  0  0  0  0  0  0  0  0  0  0  0
   -0.0865    0.8874    0.0000 C   0  0  0  0  0  0  0  0  0  0  0  0
   -0.8009    0.4749    0.0000 C   0  0  0  0  0  0  0  0  0  0  0  0
   -0.8009   -0.3501    0.0000 C   0  0  0  0  0  0  0  0  0  0  0  0
   -0.0865   -0.7626    0.0000 C   0  0  0  0  0  0  0  0  0  0  0  0
    0.6280   -0.3501    0.0000 C   0  0  0  0  0  0  0  0  0  0  0  0
    1.3425   -0.7626    0.0000 I   0  0  0  0  0  0  0  0  0  0  0  0
   -1.5154   -0.7626    0.0000 C   0  0  0  0  0  0  0  0  0  0  0  0
   -1.5154   -1.5876    0.0000 O   0  0  0  0  0  0  0  0  0  0  0  0
   -2.2299   -0.3501    0.0000 O   0  0  0  0  0  0  0  0  0  0  0  0
   -1.5154    0.8874    0.0000 Cl  0  0  0  0  0  0  0  0  0  0  0  0
    1.3425    0.8874    0.0000 H   0  0  0  0  0  0  0  0  0  0  0  0
   -0.0865    1.7124    0.0000 H   0  0  0  0  0  0  0  0  0  0  0  0
   -0.0865   -1.5876    0.0000 H   0  0  0  0  0  0  0  0  0  0  0  0
   -2.2299    0.4749    0.0000 H   0  0  0  0  0  0  0  0  0  0  0  0
  2  1  4  0  0  0  0
  3  2  4  0  0  0  0
  4  3  4  0  0  0  0
  5  4  4  0  0  0  0
  6  5  4  0  0  0  0
  6  7  1  0  0  0  0
  4  8  1  0  0  0  0
  8  9  2  0  0  0  0
  8 10  1  0  0  0  0
  3 11  1  0  0  0  0
  1  6  4  0  0  0  0
  1 12  1  0  0  0  0
  2 13  1  0  0  0  0
  5 14  1  0  0  0  0
 10 15  1  0  0  0  0
M  END
>  <id_input>
745

>  <InChIKey>
GEBYSTBEDVQOTK-UHFFFAOYSA-N

>  <substance_name>
-

>  <casrn>
19094-56-5

>  <Molecular weight>
282.4629211425781

>  <guideline>
OECD Guideline 404 (Acute Dermal Irritation / Corrosion)

>  <species>
rabbit

>  <type_of_coverage>
occlusive

>  <max_duration(hrs)>
4.0

>  <vehicle>
physiological saline

>  <edema/ erythema score>
0.5

>  <max_score>
4.0

>  <reversibility>
0.0

>  <Outcome>
0

>  <StandardizerResult>
Remove Explicit Hydrogens (ID: RemoveExplicitH)
Dearomatize (ID: Dearomatize)
Clear Stereo (ID: ClearStereo)
Wedge Clean (ID: WedgeClean)
Mesomerize (ID: Mesomerize)
Tautomerize (ID: Tautomerize)
Aromatize (ID: Aromatize)
Add Explicit Hydrogens (ID: AddExplicitH)
Neutralize (ID: Neutralize)
Clean 2D (ID: Clean2D)


$$$$

  Mrv1812 02121911042D          

 10 10  0  0  0  0            999 V2000
    1.1321   -0.4196    0.0000 C   0  0  0  0  0  0  0  0  0  0  0  0
    0.4176   -0.0071    0.0000 C   0  0  0  0  0  0  0  0  0  0  0  0
    0.0051    0.7073    0.0000 C   0  0  0  0  0  0  0  0  0  0  0  0
   -0.4074   -0.0071    0.0000 O   0  0  0  0  0  0  0  0  0  0  0  0
    0.7196   -1.1341    0.0000 H   0  0  0  0  0  0  0  0  0  0  0  0
    1.8465   -0.8321    0.0000 H   0  0  0  0  0  0  0  0  0  0  0  0
    1.5446    0.2948    0.0000 H   0  0  0  0  0  0  0  0  0  0  0  0
    1.0010    0.5762    0.0000 H   0  0  0  0  0  0  0  0  0  0  0  0
    0.4584    1.3966    0.0000 H   0  0  0  0  0  0  0  0  0  0  0  0
   -0.4482    1.3966    0.0000 H   0  0  0  0  0  0  0  0  0  0  0  0
  1  2  1  0  0  0  0
  3  2  1  0  0  0  0
  4  3  1  0  0  0  0
  2  4  1  0  0  0  0
  1  5  1  0  0  0  0
  1  6  1  0  0  0  0
  1  7  1  0  0  0  0
  2  8  1  0  0  0  0
  3  9  1  0  0  0  0
  3 10  1  0  0  0  0
M  END
>  <id_input>
2559

>  <InChIKey>
GOOHAUXETOMSMM-UHFFFAOYSA-N

>  <substance_name>
2-methyloxirane

>  <casrn>
75-56-9

>  <Molecular weight>
58.079139709472656

>  <guideline>
OECD Guideline 404 (Acute Dermal Irritation / Corrosion)

>  <species>
rabbit

>  <type_of_coverage>
semiocclusive

>  <max_duration(hrs)>
4.0

>  <vehicle>
unchanged (no vehicle)

>  <edema/ erythema score>
0.5

>  <max_score>
4.0

>  <reversibility>
0.0

>  <Outcome>
0

>  <StandardizerResult>
Remove Explicit Hydrogens (ID: RemoveExplicitH)
Clear Stereo (ID: ClearStereo)
Wedge Clean (ID: WedgeClean)
Mesomerize (ID: Mesomerize)
Tautomerize (ID: Tautomerize)
Add Explicit Hydrogens (ID: AddExplicitH)
Neutralize (ID: Neutralize)
Clean 2D (ID: Clean2D)


$$$$

  Mrv1812 02121911042D          

 10  9  0  0  0  0            999 V2000
    0.7970    0.7970    0.0000 C   0  0  0  0  0  0  0  0  0  0  0  0
    0.3845    0.0825    0.0000 S   0  0  0  0  0  0  0  0  0  0  0  0
    0.7970   -0.6320    0.0000 C   0  0  0  0  0  0  0  0  0  0  0  0
   -0.4405    0.0825    0.0000 O   0  0  0  0  0  0  0  0  0  0  0  0
    1.5115    0.3845    0.0000 H   0  0  0  0  0  0  0  0  0  0  0  0
    1.2095    1.5114    0.0000 H   0  0  0  0  0  0  0  0  0  0  0  0
    0.0825    1.2095    0.0000 H   0  0  0  0  0  0  0  0  0  0  0  0
    0.0825   -1.0445    0.0000 H   0  0  0  0  0  0  0  0  0  0  0  0
    1.2095   -1.3464    0.0000 H   0  0  0  0  0  0  0  0  0  0  0  0
    1.5115   -0.2195    0.0000 H   0  0  0  0  0  0  0  0  0  0  0  0
  1  2  1  0  0  0  0
  2  3  1  0  0  0  0
  2  4  2  0  0  0  0
  1  5  1  0  0  0  0
  1  6  1  0  0  0  0
  1  7  1  0  0  0  0
  3  8  1  0  0  0  0
  3  9  1  0  0  0  0
  3 10  1  0  0  0  0
M  END
>  <id_input>
4529

>  <InChIKey>
IAZDPXIOMUYVGZ-UHFFFAOYSA-N

>  <substance_name>
methanesulfinylmethane

>  <casrn>
67-68-5

>  <Molecular weight>
78.13343811035156

>  <guideline>
OECD Guideline 404 (Acute Dermal Irritation / Corrosion)

>  <species>
rabbit

>  <type_of_coverage>
semiocclusive

>  <max_duration(hrs)>
4.0

>  <vehicle>
unchanged (no vehicle)

>  <edema/ erythema score>
0.333333333333333

>  <max_score>
4.0

>  <reversibility>
0.0

>  <Outcome>
0

>  <StandardizerResult>
Remove Explicit Hydrogens (ID: RemoveExplicitH)
Clear Stereo (ID: ClearStereo)
Wedge Clean (ID: WedgeClean)
Mesomerize (ID: Mesomerize)
Tautomerize (ID: Tautomerize)
Add Explicit Hydrogens (ID: AddExplicitH)
Neutralize (ID: Neutralize)
Clean 2D (ID: Clean2D)


$$$$

  Mrv1812 02121911042D          

 42 41  0  0  0  0            999 V2000
    0.2874    2.9673    0.0000 C   0  0  0  0  0  0  0  0  0  0  0  0
    0.6999    2.2528    0.0000 C   0  0  0  0  0  0  0  0  0  0  0  0
    1.5249    2.2528    0.0000 C   0  0  0  0  0  0  0  0  0  0  0  0
    0.2874    1.5383    0.0000 Si  0  0  0  0  0  4  0  0  0  0  0  0
   -0.4271    1.9508    0.0000 C   0  0  0  0  0  0  0  0  0  0  0  0
   -1.1416    1.5383    0.0000 C   0  0  0  0  0  0  0  0  0  0  0  0
   -0.4271    2.7758    0.0000 C   0  0  0  0  0  0  0  0  0  0  0  0
    1.0019    1.1258    0.0000 C   0  0  0  0  0  0  0  0  0  0  0  0
    1.0019    0.3008    0.0000 C   0  0  0  0  0  0  0  0  0  0  0  0
    1.7163    1.5383    0.0000 C   0  0  0  0  0  0  0  0  0  0  0  0
   -0.1251    0.8238    0.0000 O   0  0  0  0  0  0  0  0  0  0  0  0
    0.2874    0.1094    0.0000 C   0  0  0  0  0  0  0  0  0  0  0  0
    1.0720   -0.1456    0.0000 O   0  0  0  0  0  0  0  0  0  0  0  0
   -0.1251   -0.6051    0.0000 C   0  0  0  0  0  0  0  0  0  0  0  0
    0.2874   -1.3196    0.0000 C   0  0  0  0  0  0  0  0  0  0  0  0
   -0.9501   -0.6051    0.0000 C   0  0  0  0  0  0  0  0  0  0  0  0
    1.1106    3.0212    0.0000 H   0  0  0  0  0  0  0  0  0  0  0  0
    0.6031    3.7295    0.0000 H   0  0  0  0  0  0  0  0  0  0  0  0
   -0.2566    3.5875    0.0000 H   0  0  0  0  0  0  0  0  0  0  0  0
    1.1124    1.5383    0.0000 H   0  0  0  0  0  0  0  0  0  0  0  0
    2.2621    1.8825    0.0000 H   0  0  0  0  0  0  0  0  0  0  0  0
    2.2916    2.5573    0.0000 H   0  0  0  0  0  0  0  0  0  0  0  0
    1.8071    3.0280    0.0000 H   0  0  0  0  0  0  0  0  0  0  0  0
   -0.4271    1.1258    0.0000 H   0  0  0  0  0  0  0  0  0  0  0  0
   -1.3551    2.3352    0.0000 H   0  0  0  0  0  0  0  0  0  0  0  0
   -1.9666    1.5383    0.0000 H   0  0  0  0  0  0  0  0  0  0  0  0
   -1.3551    0.7414    0.0000 H   0  0  0  0  0  0  0  0  0  0  0  0
   -1.1605    3.1536    0.0000 H   0  0  0  0  0  0  0  0  0  0  0  0
   -1.2225    2.5569    0.0000 H   0  0  0  0  0  0  0  0  0  0  0  0
    0.2274    2.2736    0.0000 H   0  0  0  0  0  0  0  0  0  0  0  0
    0.2874    0.7133    0.0000 H   0  0  0  0  0  0  0  0  0  0  0  0
    1.6493   -0.2105    0.0000 H   0  0  0  0  0  0  0  0  0  0  0  0
    1.8244    0.3650    0.0000 H   0  0  0  0  0  0  0  0  0  0  0  0
    1.5620    0.9065    0.0000 H   0  0  0  0  0  0  0  0  0  0  0  0
    2.1486    0.8356    0.0000 H   0  0  0  0  0  0  0  0  0  0  0  0
    2.5199    1.3516    0.0000 H   0  0  0  0  0  0  0  0  0  0  0  0
    1.0618    2.0405    0.0000 H   0  0  0  0  0  0  0  0  0  0  0  0
   -0.1251   -2.0340    0.0000 H   0  0  0  0  0  0  0  0  0  0  0  0
    1.1124   -1.3196    0.0000 H   0  0  0  0  0  0  0  0  0  0  0  0
   -0.9501    0.2199    0.0000 H   0  0  0  0  0  0  0  0  0  0  0  0
   -1.7751   -0.6051    0.0000 H   0  0  0  0  0  0  0  0  0  0  0  0
   -0.9501   -1.4301    0.0000 H   0  0  0  0  0  0  0  0  0  0  0  0
  1  2  1  0  0  0  0
  2  3  1  0  0  0  0
  2  4  1  0  0  0  0
  4  5  1  0  0  0  0
  5  6  1  0  0  0  0
  5  7  1  0  0  0  0
  4  8  1  0  0  0  0
  8  9  1  0  0  0  0
  8 10  1  0  0  0  0
  4 11  1  0  0  0  0
 11 12  1  0  0  0  0
 12 13  2  0  0  0  0
 12 14  1  0  0  0  0
 14 15  2  0  0  0  0
 14 16  1  0  0  0  0
  1 17  1  0  0  0  0
  1 18  1  0  0  0  0
  1 19  1  0  0  0  0
  2 20  1  0  0  0  0
  3 21  1  0  0  0  0
  3 22  1  0  0  0  0
  3 23  1  0  0  0  0
  5 24  1  0  0  0  0
  6 25  1  0  0  0  0
  6 26  1  0  0  0  0
  6 27  1  0  0  0  0
  7 28  1  0  0  0  0
  7 29  1  0  0  0  0
  7 30  1  0  0  0  0
  8 31  1  0  0  0  0
  9 32  1  0  0  0  0
  9 33  1  0  0  0  0
  9 34  1  0  0  0  0
 10 35  1  0  0  0  0
 10 36  1  0  0  0  0
 10 37  1  0  0  0  0
 15 38  1  0  0  0  0
 15 39  1  0  0  0  0
 16 40  1  0  0  0  0
 16 41  1  0  0  0  0
 16 42  1  0  0  0  0
M  END
>  <id_input>
184

>  <InChIKey>
KNNOZYMZRGTZQM-UHFFFAOYSA-N

>  <substance_name>
-

>  <casrn>
134652-60-1

>  <Molecular weight>
242.42984008789062

>  <guideline>
OECD Guideline 404 (Acute Dermal Irritation / Corrosion)

>  <species>
rabbit

>  <type_of_coverage>
occlusive

>  <max_duration(hrs)>
4.0

>  <vehicle>
unchanged (no vehicle)

>  <edema/ erythema score>
0.333333333333333

>  <reversibility>
0.0

>  <Outcome>
0

>  <StandardizerResult>
Remove Explicit Hydrogens (ID: RemoveExplicitH)
Clear Stereo (ID: ClearStereo)
Wedge Clean (ID: WedgeClean)
Mesomerize (ID: Mesomerize)
Tautomerize (ID: Tautomerize)
Add Explicit Hydrogens (ID: AddExplicitH)
Neutralize (ID: Neutralize)
Clean 2D (ID: Clean2D)


$$$$

  Mrv1812 02121911042D          

 20 19  0  0  0  0            999 V2000
   -0.3656    1.1116    0.0000 C   0  0  0  0  0  0  0  0  0  0  0  0
    0.3489    0.6991    0.0000 C   0  0  0  0  0  0  0  0  0  0  0  0
    1.0634    1.1116    0.0000 C   0  0  0  0  0  0  0  0  0  0  0  0
    1.7778    0.6991    0.0000 C   0  0  0  0  0  0  0  0  0  0  0  0
    1.7778   -0.1259    0.0000 O   0  0  0  0  0  0  0  0  0  0  0  0
    2.4923    1.1116    0.0000 O   0  0  0  0  0  0  0  0  0  0  0  0
    3.2068    0.6991    0.0000 C   0  0  0  0  0  0  0  0  0  0  0  0
    3.9212    1.1116    0.0000 C   0  0  0  0  0  0  0  0  0  0  0  0
    0.0469    1.8261    0.0000 H   0  0  0  0  0  0  0  0  0  0  0  0
   -1.0801    1.5241    0.0000 H   0  0  0  0  0  0  0  0  0  0  0  0
   -0.7781    0.3971    0.0000 H   0  0  0  0  0  0  0  0  0  0  0  0
   -0.0214   -0.0382    0.0000 H   0  0  0  0  0  0  0  0  0  0  0  0
    0.7191   -0.0382    0.0000 H   0  0  0  0  0  0  0  0  0  0  0  0
    1.4336    1.8488    0.0000 H   0  0  0  0  0  0  0  0  0  0  0  0
    0.6931    1.8488    0.0000 H   0  0  0  0  0  0  0  0  0  0  0  0
    2.8365   -0.0382    0.0000 H   0  0  0  0  0  0  0  0  0  0  0  0
    3.5770   -0.0382    0.0000 H   0  0  0  0  0  0  0  0  0  0  0  0
    4.3337    0.3971    0.0000 H   0  0  0  0  0  0  0  0  0  0  0  0
    4.6357    1.5241    0.0000 H   0  0  0  0  0  0  0  0  0  0  0  0
    3.5087    1.8261    0.0000 H   0  0  0  0  0  0  0  0  0  0  0  0
  1  2  1  0  0  0  0
  2  3  1  0  0  0  0
  3  4  1  0  0  0  0
  4  5  2  0  0  0  0
  4  6  1  0  0  0  0
  6  7  1  0  0  0  0
  7  8  1  0  0  0  0
  1  9  1  0  0  0  0
  1 10  1  0  0  0  0
  1 11  1  0  0  0  0
  2 12  1  0  0  0  0
  2 13  1  0  0  0  0
  3 14  1  0  0  0  0
  3 15  1  0  0  0  0
  7 16  1  0  0  0  0
  7 17  1  0  0  0  0
  8 18  1  0  0  0  0
  8 19  1  0  0  0  0
  8 20  1  0  0  0  0
M  END
>  <id_input>
4352

>  <InChIKey>
OBNCKNCVKJNDBV-UHFFFAOYSA-N

>  <substance_name>
ethyl butanoate

>  <casrn>
105-54-4

>  <Molecular weight>
116.15827941894531

>  <guideline>
other: OECD 402

>  <species>
rat

>  <type_of_coverage>
occlusive

>  <max_duration(hrs)>
24.0

>  <vehicle>
unchanged (no vehicle)

>  <edema/ erythema score>
0.0

>  <reversibility>
0.0

>  <Outcome>
0

>  <StandardizerResult>
Remove Explicit Hydrogens (ID: RemoveExplicitH)
Clear Stereo (ID: ClearStereo)
Wedge Clean (ID: WedgeClean)
Mesomerize (ID: Mesomerize)
Tautomerize (ID: Tautomerize)
Add Explicit Hydrogens (ID: AddExplicitH)
Neutralize (ID: Neutralize)
Clean 2D (ID: Clean2D)


$$$$

  Mrv1812 02121911042D          

 99 98  0  0  0  0            999 V2000
   -1.2499   -1.8137    0.0000 C   0  0  0  0  0  0  0  0  0  0  0  0
   -0.5354   -2.2262    0.0000 C   0  0  0  0  0  0  0  0  0  0  0  0
    0.1790   -1.8137    0.0000 C   0  0  0  0  0  0  0  0  0  0  0  0
    0.8935   -2.2262    0.0000 C   0  0  0  0  0  0  0  0  0  0  0  0
    1.6080   -1.8137    0.0000 C   0  0  0  0  0  0  0  0  0  0  0  0
    2.3225   -2.2262    0.0000 C   0  0  0  0  0  0  0  0  0  0  0  0
    3.0369   -1.8137    0.0000 C   0  0  0  0  0  0  0  0  0  0  0  0
    3.7514   -2.2262    0.0000 C   0  0  0  0  0  0  0  0  0  0  0  0
    4.4659   -1.8137    0.0000 C   0  0  0  0  0  0  0  0  0  0  0  0
    5.1803   -2.2262    0.0000 C   0  0  0  0  0  0  0  0  0  0  0  0
    5.8948   -1.8137    0.0000 C   0  0  0  0  0  0  0  0  0  0  0  0
    6.6093   -2.2262    0.0000 C   0  0  0  0  0  0  0  0  0  0  0  0
    7.3238   -1.8137    0.0000 C   0  0  0  0  0  0  0  0  0  0  0  0
    8.0382   -2.2262    0.0000 C   0  0  0  0  0  0  0  0  0  0  0  0
    8.7527   -1.8137    0.0000 C   0  0  0  0  0  0  0  0  0  0  0  0
    9.4672   -2.2262    0.0000 C   0  0  0  0  0  0  0  0  0  0  0  0
   10.1816   -1.8137    0.0000 C   0  0  0  0  0  0  0  0  0  0  0  0
   10.1816   -0.9887    0.0000 C   0  0  0  0  0  0  0  0  0  0  0  0
   10.8961   -0.5762    0.0000 O   0  0  0  0  0  0  0  0  0  0  0  0
   10.8961   -2.2262    0.0000 C   0  0  0  0  0  0  0  0  0  0  0  0
   11.6106   -1.8137    0.0000 C   0  0  0  0  0  0  0  0  0  0  0  0
   12.3250   -2.2262    0.0000 C   0  0  0  0  0  0  0  0  0  0  0  0
   13.0395   -1.8137    0.0000 C   0  0  0  0  0  0  0  0  0  0  0  0
   13.7540   -2.2262    0.0000 C   0  0  0  0  0  0  0  0  0  0  0  0
   14.4685   -1.8137    0.0000 C   0  0  0  0  0  0  0  0  0  0  0  0
   15.1829   -2.2262    0.0000 C   0  0  0  0  0  0  0  0  0  0  0  0
   15.8974   -1.8137    0.0000 C   0  0  0  0  0  0  0  0  0  0  0  0
   16.6119   -2.2262    0.0000 C   0  0  0  0  0  0  0  0  0  0  0  0
   17.3263   -1.8137    0.0000 C   0  0  0  0  0  0  0  0  0  0  0  0
   18.0408   -2.2262    0.0000 C   0  0  0  0  0  0  0  0  0  0  0  0
   18.7553   -1.8137    0.0000 C   0  0  0  0  0  0  0  0  0  0  0  0
   19.4698   -2.2262    0.0000 C   0  0  0  0  0  0  0  0  0  0  0  0
   20.1842   -1.8137    0.0000 C   0  0  0  0  0  0  0  0  0  0  0  0
   -0.8374   -1.0992    0.0000 H   0  0  0  0  0  0  0  0  0  0  0  0
   -1.9644   -1.4012    0.0000 H   0  0  0  0  0  0  0  0  0  0  0  0
   -1.6624   -2.5282    0.0000 H   0  0  0  0  0  0  0  0  0  0  0  0
   -0.9057   -2.9635    0.0000 H   0  0  0  0  0  0  0  0  0  0  0  0
   -0.1652   -2.9635    0.0000 H   0  0  0  0  0  0  0  0  0  0  0  0
    0.5493   -1.0765    0.0000 H   0  0  0  0  0  0  0  0  0  0  0  0
   -0.1912   -1.0765    0.0000 H   0  0  0  0  0  0  0  0  0  0  0  0
    0.5233   -2.9635    0.0000 H   0  0  0  0  0  0  0  0  0  0  0  0
    1.2638   -2.9635    0.0000 H   0  0  0  0  0  0  0  0  0  0  0  0
    1.9782   -1.0765    0.0000 H   0  0  0  0  0  0  0  0  0  0  0  0
    1.2377   -1.0765    0.0000 H   0  0  0  0  0  0  0  0  0  0  0  0
    1.9522   -2.9635    0.0000 H   0  0  0  0  0  0  0  0  0  0  0  0
    2.6927   -2.9635    0.0000 H   0  0  0  0  0  0  0  0  0  0  0  0
    3.4072   -1.0765    0.0000 H   0  0  0  0  0  0  0  0  0  0  0  0
    2.6667   -1.0765    0.0000 H   0  0  0  0  0  0  0  0  0  0  0  0
    3.3811   -2.9635    0.0000 H   0  0  0  0  0  0  0  0  0  0  0  0
    4.1217   -2.9635    0.0000 H   0  0  0  0  0  0  0  0  0  0  0  0
    4.8361   -1.0765    0.0000 H   0  0  0  0  0  0  0  0  0  0  0  0
    4.0956   -1.0765    0.0000 H   0  0  0  0  0  0  0  0  0  0  0  0
    4.8101   -2.9635    0.0000 H   0  0  0  0  0  0  0  0  0  0  0  0
    5.5506   -2.9635    0.0000 H   0  0  0  0  0  0  0  0  0  0  0  0
    6.2651   -1.0765    0.0000 H   0  0  0  0  0  0  0  0  0  0  0  0
    5.5245   -1.0765    0.0000 H   0  0  0  0  0  0  0  0  0  0  0  0
    6.2390   -2.9635    0.0000 H   0  0  0  0  0  0  0  0  0  0  0  0
    6.9795   -2.9635    0.0000 H   0  0  0  0  0  0  0  0  0  0  0  0
    7.6940   -1.0765    0.0000 H   0  0  0  0  0  0  0  0  0  0  0  0
    6.9535   -1.0765    0.0000 H   0  0  0  0  0  0  0  0  0  0  0  0
    7.6680   -2.9635    0.0000 H   0  0  0  0  0  0  0  0  0  0  0  0
    8.4085   -2.9635    0.0000 H   0  0  0  0  0  0  0  0  0  0  0  0
    9.1230   -1.0765    0.0000 H   0  0  0  0  0  0  0  0  0  0  0  0
    8.3824   -1.0765    0.0000 H   0  0  0  0  0  0  0  0  0  0  0  0
    9.0969   -2.9635    0.0000 H   0  0  0  0  0  0  0  0  0  0  0  0
    9.8374   -2.9635    0.0000 H   0  0  0  0  0  0  0  0  0  0  0  0
    9.4672   -1.4012    0.0000 H   0  0  0  0  0  0  0  0  0  0  0  0
   10.0384   -0.1763    0.0000 H   0  0  0  0  0  0  0  0  0  0  0  0
    9.5496   -0.4584    0.0000 H   0  0  0  0  0  0  0  0  0  0  0  0
   11.7203   -0.5402    0.0000 H   0  0  0  0  0  0  0  0  0  0  0  0
   10.5258   -2.9635    0.0000 H   0  0  0  0  0  0  0  0  0  0  0  0
   11.2664   -2.9635    0.0000 H   0  0  0  0  0  0  0  0  0  0  0  0
   11.9808   -1.0765    0.0000 H   0  0  0  0  0  0  0  0  0  0  0  0
   11.2403   -1.0765    0.0000 H   0  0  0  0  0  0  0  0  0  0  0  0
   11.9548   -2.9635    0.0000 H   0  0  0  0  0  0  0  0  0  0  0  0
   12.6953   -2.9635    0.0000 H   0  0  0  0  0  0  0  0  0  0  0  0
   13.4098   -1.0765    0.0000 H   0  0  0  0  0  0  0  0  0  0  0  0
   12.6693   -1.0765    0.0000 H   0  0  0  0  0  0  0  0  0  0  0  0
   13.3837   -2.9635    0.0000 H   0  0  0  0  0  0  0  0  0  0  0  0
   14.1242   -2.9635    0.0000 H   0  0  0  0  0  0  0  0  0  0  0  0
   14.8387   -1.0765    0.0000 H   0  0  0  0  0  0  0  0  0  0  0  0
   14.0982   -1.0765    0.0000 H   0  0  0  0  0  0  0  0  0  0  0  0
   14.8127   -2.9635    0.0000 H   0  0  0  0  0  0  0  0  0  0  0  0
   15.5532   -2.9635    0.0000 H   0  0  0  0  0  0  0  0  0  0  0  0
   16.2677   -1.0765    0.0000 H   0  0  0  0  0  0  0  0  0  0  0  0
   15.5271   -1.0765    0.0000 H   0  0  0  0  0  0  0  0  0  0  0  0
   16.2416   -2.9635    0.0000 H   0  0  0  0  0  0  0  0  0  0  0  0
   16.9821   -2.9635    0.0000 H   0  0  0  0  0  0  0  0  0  0  0  0
   17.6966   -1.0765    0.0000 H   0  0  0  0  0  0  0  0  0  0  0  0
   16.9561   -1.0765    0.0000 H   0  0  0  0  0  0  0  0  0  0  0  0
   17.6706   -2.9635    0.0000 H   0  0  0  0  0  0  0  0  0  0  0  0
   18.4111   -2.9635    0.0000 H   0  0  0  0  0  0  0  0  0  0  0  0
   19.1255   -1.0765    0.0000 H   0  0  0  0  0  0  0  0  0  0  0  0
   18.3850   -1.0765    0.0000 H   0  0  0  0  0  0  0  0  0  0  0  0
   19.0995   -2.9635    0.0000 H   0  0  0  0  0  0  0  0  0  0  0  0
   19.8400   -2.9635    0.0000 H   0  0  0  0  0  0  0  0  0  0  0  0
   20.5967   -2.5282    0.0000 H   0  0  0  0  0  0  0  0  0  0  0  0
   20.8987   -1.4012    0.0000 H   0  0  0  0  0  0  0  0  0  0  0  0
   19.7717   -1.0992    0.0000 H   0  0  0  0  0  0  0  0  0  0  0  0
  1  2  1  0  0  0  0
  2  3  1  0  0  0  0
  3  4  1  0  0  0  0
  4  5  1  0  0  0  0
  5  6  1  0  0  0  0
  6  7  1  0  0  0  0
  7  8  1  0  0  0  0
  8  9  1  0  0  0  0
  9 10  1  0  0  0  0
 10 11  1  0  0  0  0
 11 12  1  0  0  0  0
 12 13  1  0  0  0  0
 13 14  1  0  0  0  0
 14 15  1  0  0  0  0
 15 16  1  0  0  0  0
 16 17  1  0  0  0  0
 17 18  1  0  0  0  0
 18 19  1  0  0  0  0
 17 20  1  0  0  0  0
 20 21  1  0  0  0  0
 21 22  1  0  0  0  0
 22 23  1  0  0  0  0
 23 24  1  0  0  0  0
 24 25  1  0  0  0  0
 25 26  1  0  0  0  0
 26 27  1  0  0  0  0
 27 28  1  0  0  0  0
 28 29  1  0  0  0  0
 29 30  1  0  0  0  0
 30 31  1  0  0  0  0
 31 32  1  0  0  0  0
 32 33  1  0  0  0  0
  1 34  1  0  0  0  0
  1 35  1  0  0  0  0
  1 36  1  0  0  0  0
  2 37  1  0  0  0  0
  2 38  1  0  0  0  0
  3 39  1  0  0  0  0
  3 40  1  0  0  0  0
  4 41  1  0  0  0  0
  4 42  1  0  0  0  0
  5 43  1  0  0  0  0
  5 44  1  0  0  0  0
  6 45  1  0  0  0  0
  6 46  1  0  0  0  0
  7 47  1  0  0  0  0
  7 48  1  0  0  0  0
  8 49  1  0  0  0  0
  8 50  1  0  0  0  0
  9 51  1  0  0  0  0
  9 52  1  0  0  0  0
 10 53  1  0  0  0  0
 10 54  1  0  0  0  0
 11 55  1  0  0  0  0
 11 56  1  0  0  0  0
 12 57  1  0  0  0  0
 12 58  1  0  0  0  0
 13 59  1  0  0  0  0
 13 60  1  0  0  0  0
 14 61  1  0  0  0  0
 14 62  1  0  0  0  0
 15 63  1  0  0  0  0
 15 64  1  0  0  0  0
 16 65  1  0  0  0  0
 16 66  1  0  0  0  0
 17 67  1  0  0  0  0
 18 68  1  0  0  0  0
 18 69  1  0  0  0  0
 19 70  1  0  0  0  0
 20 71  1  0  0  0  0
 20 72  1  0  0  0  0
 21 73  1  0  0  0  0
 21 74  1  0  0  0  0
 22 75  1  0  0  0  0
 22 76  1  0  0  0  0
 23 77  1  0  0  0  0
 23 78  1  0  0  0  0
 24 79  1  0  0  0  0
 24 80  1  0  0  0  0
 25 81  1  0  0  0  0
 25 82  1  0  0  0  0
 26 83  1  0  0  0  0
 26 84  1  0  0  0  0
 27 85  1  0  0  0  0
 27 86  1  0  0  0  0
 28 87  1  0  0  0  0
 28 88  1  0  0  0  0
 29 89  1  0  0  0  0
 29 90  1  0  0  0  0
 30 91  1  0  0  0  0
 30 92  1  0  0  0  0
 31 93  1  0  0  0  0
 31 94  1  0  0  0  0
 32 95  1  0  0  0  0
 32 96  1  0  0  0  0
 33 97  1  0  0  0  0
 33 98  1  0  0  0  0
 33 99  1  0  0  0  0
M  END
>  <id_input>
2609

>  <InChIKey>
RTXVDAJGIYOHFY-UHFFFAOYSA-N

>  <substance_name>
2-tetradecyloctadecan-1-ol

>  <casrn>
32582-32-4

>  <Molecular weight>
466.8658447265625

>  <guideline>
OECD Guideline 404 (Acute Dermal Irritation / Corrosion)

>  <species>
rabbit

>  <type_of_coverage>
semiocclusive

>  <max_duration(hrs)>
4.0

>  <vehicle>
unchanged (no vehicle)

>  <edema/ erythema score>
0.553333333333333

>  <max_score>
1.0

>  <reversibility>
0.0

>  <Outcome>
0

>  <StandardizerResult>
Remove Explicit Hydrogens (ID: RemoveExplicitH)
Clear Stereo (ID: ClearStereo)
Wedge Clean (ID: WedgeClean)
Mesomerize (ID: Mesomerize)
Tautomerize (ID: Tautomerize)
Add Explicit Hydrogens (ID: AddExplicitH)
Neutralize (ID: Neutralize)
Clean 2D (ID: Clean2D)


$$$$

  Mrv1812 02121911042D          

  9  8  0  0  0  0            999 V2000
    0.8050   -0.3803    0.0000 C   0  0  0  0  0  0  0  0  0  0  0  0
    0.3925    0.3341    0.0000 C   0  0  0  0  0  0  0  0  0  0  0  0
   -0.4325    0.3341    0.0000 O   0  0  0  0  0  0  0  0  0  0  0  0
    0.0906   -0.7928    0.0000 H   0  0  0  0  0  0  0  0  0  0  0  0
    1.2175   -1.0948    0.0000 H   0  0  0  0  0  0  0  0  0  0  0  0
    1.5195    0.0322    0.0000 H   0  0  0  0  0  0  0  0  0  0  0  0
    1.0818    0.7875    0.0000 H   0  0  0  0  0  0  0  0  0  0  0  0
    0.4405    1.1577    0.0000 H   0  0  0  0  0  0  0  0  0  0  0  0
   -0.8450    1.0486    0.0000 H   0  0  0  0  0  0  0  0  0  0  0  0
  1  2  1  0  0  0  0
  2  3  1  0  0  0  0
  1  4  1  0  0  0  0
  1  5  1  0  0  0  0
  1  6  1  0  0  0  0
  2  7  1  0  0  0  0
  2  8  1  0  0  0  0
  3  9  1  0  0  0  0
M  END
>  <id_input>
4320, 4321

>  <InChIKey>
LFQSCWFLJHTTHZ-UHFFFAOYSA-N

>  <substance_name>
ethanol

>  <casrn>
64-17-5

>  <Molecular weight>
46.06843948364258

>  <guideline>
OECD Guideline 404 (Acute Dermal Irritation / Corrosion)

>  <species>
rabbit

>  <type_of_coverage>
occlusive

>  <max_duration(hrs)>
200.5

>  <vehicle>
unchanged (no vehicle)

>  <edema/ erythema score>
0.05

>  <max_score>
2.0

>  <reversibility>
0.0

>  <Outcome>
0

>  <StandardizerResult>
Remove Explicit Hydrogens (ID: RemoveExplicitH)
Mesomerize (ID: Mesomerize)
Tautomerize (ID: Tautomerize)
Add Explicit Hydrogens (ID: AddExplicitH)
Neutralize (ID: Neutralize)
Clean 2D (ID: Clean2D)


$$$$

  Mrv1812 02121911042D          

 98 97  0  0  0  0            999 V2000
   -7.8993    9.2865    0.0000 C   0  0  0  0  0  0  0  0  0  0  0  0
   -7.1849    9.6990    0.0000 C   0  0  0  0  0  0  0  0  0  0  0  0
   -7.1849   10.5240    0.0000 C   0  0  0  0  0  0  0  0  0  0  0  0
   -6.4704    9.2865    0.0000 C   0  0  0  0  0  0  0  0  0  0  0  0
   -5.7559    9.6990    0.0000 C   0  0  0  0  0  0  0  0  0  0  0  0
   -5.0414    9.2865    0.0000 C   0  0  0  0  0  0  0  0  0  0  0  0
   -4.3270    9.6990    0.0000 C   0  0  0  0  0  0  0  0  0  0  0  0
   -3.6125    9.2865    0.0000 C   0  0  0  0  0  0  0  0  0  0  0  0
   -2.8980    9.6990    0.0000 C   0  0  0  0  0  0  0  0  0  0  0  0
   -2.1836    9.2865    0.0000 C   0  0  0  0  0  0  0  0  0  0  0  0
   -1.4691    9.6990    0.0000 C   0  0  0  0  0  0  0  0  0  0  0  0
   -0.7546    9.2865    0.0000 C   0  0  0  0  0  0  0  0  0  0  0  0
   -0.0401    9.6990    0.0000 C   0  0  0  0  0  0  0  0  0  0  0  0
    0.6743    9.2865    0.0000 O   0  0  0  0  0  0  0  0  0  0  0  0
    1.3888    9.6990    0.0000 C   0  0  0  0  0  0  0  0  0  0  0  0
    1.3888   10.5240    0.0000 O   0  0  0  0  0  0  0  0  0  0  0  0
    2.1033    9.2865    0.0000 C   0  0  0  0  0  0  0  0  0  0  0  0
    2.8177    9.6990    0.0000 C   0  0  0  0  0  0  0  0  0  0  0  0
    3.5322    9.2865    0.0000 C   0  0  0  0  0  0  0  0  0  0  0  0
    4.2467    9.6990    0.0000 C   0  0  0  0  0  0  0  0  0  0  0  0
    4.9611    9.2865    0.0000 C   0  0  0  0  0  0  0  0  0  0  0  0
    4.9611    8.4615    0.0000 O   0  0  0  0  0  0  0  0  0  0  0  0
    5.6756    9.6990    0.0000 O   0  0  0  0  0  0  0  0  0  0  0  0
    6.3901    9.2865    0.0000 C   0  0  0  0  0  0  0  0  0  0  0  0
    7.1046    9.6990    0.0000 C   0  0  0  0  0  0  0  0  0  0  0  0
    7.8190    9.2865    0.0000 C   0  0  0  0  0  0  0  0  0  0  0  0
    8.5335    9.6990    0.0000 C   0  0  0  0  0  0  0  0  0  0  0  0
    9.2480    9.2865    0.0000 C   0  0  0  0  0  0  0  0  0  0  0  0
    9.9624    9.6990    0.0000 C   0  0  0  0  0  0  0  0  0  0  0  0
   10.6769    9.2865    0.0000 C   0  0  0  0  0  0  0  0  0  0  0  0
   11.3914    9.6990    0.0000 C   0  0  0  0  0  0  0  0  0  0  0  0
   12.1059    9.2865    0.0000 C   0  0  0  0  0  0  0  0  0  0  0  0
   12.8203    9.6990    0.0000 C   0  0  0  0  0  0  0  0  0  0  0  0
   13.5348    9.2865    0.0000 C   0  0  0  0  0  0  0  0  0  0  0  0
   14.2493    9.6990    0.0000 C   0  0  0  0  0  0  0  0  0  0  0  0
   13.5348    8.4615    0.0000 C   0  0  0  0  0  0  0  0  0  0  0  0
   -8.3118   10.0010    0.0000 H   0  0  0  0  0  0  0  0  0  0  0  0
   -8.6138    8.8740    0.0000 H   0  0  0  0  0  0  0  0  0  0  0  0
   -7.4868    8.5721    0.0000 H   0  0  0  0  0  0  0  0  0  0  0  0
   -7.8993   10.1115    0.0000 H   0  0  0  0  0  0  0  0  0  0  0  0
   -6.3880   10.3105    0.0000 H   0  0  0  0  0  0  0  0  0  0  0  0
   -6.7724   11.2385    0.0000 H   0  0  0  0  0  0  0  0  0  0  0  0
   -7.7682   11.1074    0.0000 H   0  0  0  0  0  0  0  0  0  0  0  0
   -6.8406    8.5493    0.0000 H   0  0  0  0  0  0  0  0  0  0  0  0
   -6.1001    8.5493    0.0000 H   0  0  0  0  0  0  0  0  0  0  0  0
   -5.2591   10.3577    0.0000 H   0  0  0  0  0  0  0  0  0  0  0  0
   -5.7559    8.8740    0.0000 H   0  0  0  0  0  0  0  0  0  0  0  0
   -4.8982    8.4741    0.0000 H   0  0  0  0  0  0  0  0  0  0  0  0
   -4.4095    8.7562    0.0000 H   0  0  0  0  0  0  0  0  0  0  0  0
   -3.9567   10.4363    0.0000 H   0  0  0  0  0  0  0  0  0  0  0  0
   -4.6972   10.4363    0.0000 H   0  0  0  0  0  0  0  0  0  0  0  0
   -3.5776    8.4623    0.0000 H   0  0  0  0  0  0  0  0  0  0  0  0
   -2.8895    8.8893    0.0000 H   0  0  0  0  0  0  0  0  0  0  0  0
   -2.5278   10.4363    0.0000 H   0  0  0  0  0  0  0  0  0  0  0  0
   -3.2683   10.4363    0.0000 H   0  0  0  0  0  0  0  0  0  0  0  0
   -2.0458    8.4731    0.0000 H   0  0  0  0  0  0  0  0  0  0  0  0
   -1.5538    8.7536    0.0000 H   0  0  0  0  0  0  0  0  0  0  0  0
   -1.0988   10.4363    0.0000 H   0  0  0  0  0  0  0  0  0  0  0  0
   -1.8393   10.4363    0.0000 H   0  0  0  0  0  0  0  0  0  0  0  0
   -0.7191    8.4623    0.0000 H   0  0  0  0  0  0  0  0  0  0  0  0
   -0.0314    8.8895    0.0000 H   0  0  0  0  0  0  0  0  0  0  0  0
    0.3301   10.4363    0.0000 H   0  0  0  0  0  0  0  0  0  0  0  0
   -0.4104   10.4363    0.0000 H   0  0  0  0  0  0  0  0  0  0  0  0
    1.7330    8.5493    0.0000 H   0  0  0  0  0  0  0  0  0  0  0  0
    2.4735    8.5493    0.0000 H   0  0  0  0  0  0  0  0  0  0  0  0
    3.1880   10.4363    0.0000 H   0  0  0  0  0  0  0  0  0  0  0  0
    2.4475   10.4363    0.0000 H   0  0  0  0  0  0  0  0  0  0  0  0
    3.1619    8.5493    0.0000 H   0  0  0  0  0  0  0  0  0  0  0  0
    3.9025    8.5493    0.0000 H   0  0  0  0  0  0  0  0  0  0  0  0
    4.6169   10.4363    0.0000 H   0  0  0  0  0  0  0  0  0  0  0  0
    3.8764   10.4363    0.0000 H   0  0  0  0  0  0  0  0  0  0  0  0
    6.0198    8.5493    0.0000 H   0  0  0  0  0  0  0  0  0  0  0  0
    6.7603    8.5493    0.0000 H   0  0  0  0  0  0  0  0  0  0  0  0
    7.4748   10.4363    0.0000 H   0  0  0  0  0  0  0  0  0  0  0  0
    6.7343   10.4363    0.0000 H   0  0  0  0  0  0  0  0  0  0  0  0
    7.4488    8.5493    0.0000 H   0  0  0  0  0  0  0  0  0  0  0  0
    8.1893    8.5493    0.0000 H   0  0  0  0  0  0  0  0  0  0  0  0
    8.9038   10.4363    0.0000 H   0  0  0  0  0  0  0  0  0  0  0  0
    8.1632   10.4363    0.0000 H   0  0  0  0  0  0  0  0  0  0  0  0
    8.8777    8.5493    0.0000 H   0  0  0  0  0  0  0  0  0  0  0  0
    9.6182    8.5493    0.0000 H   0  0  0  0  0  0  0  0  0  0  0  0
   10.3327   10.4363    0.0000 H   0  0  0  0  0  0  0  0  0  0  0  0
    9.5922   10.4363    0.0000 H   0  0  0  0  0  0  0  0  0  0  0  0
   10.3067    8.5493    0.0000 H   0  0  0  0  0  0  0  0  0  0  0  0
   11.0472    8.5493    0.0000 H   0  0  0  0  0  0  0  0  0  0  0  0
   11.7616   10.4363    0.0000 H   0  0  0  0  0  0  0  0  0  0  0  0
   11.0211   10.4363    0.0000 H   0  0  0  0  0  0  0  0  0  0  0  0
   11.7356    8.5493    0.0000 H   0  0  0  0  0  0  0  0  0  0  0  0
   12.4761    8.5493    0.0000 H   0  0  0  0  0  0  0  0  0  0  0  0
   13.1906   10.4363    0.0000 H   0  0  0  0  0  0  0  0  0  0  0  0
   12.4501   10.4363    0.0000 H   0  0  0  0  0  0  0  0  0  0  0  0
   13.5348   10.1115    0.0000 H   0  0  0  0  0  0  0  0  0  0  0  0
   14.4628    8.9022    0.0000 H   0  0  0  0  0  0  0  0  0  0  0  0
   15.0743    9.6990    0.0000 H   0  0  0  0  0  0  0  0  0  0  0  0
   14.4628   10.4959    0.0000 H   0  0  0  0  0  0  0  0  0  0  0  0
   12.7098    8.4615    0.0000 H   0  0  0  0  0  0  0  0  0  0  0  0
   13.5348    7.6365    0.0000 H   0  0  0  0  0  0  0  0  0  0  0  0
   14.3598    8.4615    0.0000 H   0  0  0  0  0  0  0  0  0  0  0  0
  1  2  1  0  0  0  0
  2  3  1  0  0  0  0
  2  4  1  0  0  0  0
  4  5  1  0  0  0  0
  5  6  1  0  0  0  0
  6  7  1  0  0  0  0
  7  8  1  0  0  0  0
  8  9  1  0  0  0  0
  9 10  1  0  0  0  0
 10 11  1  0  0  0  0
 11 12  1  0  0  0  0
 12 13  1  0  0  0  0
 13 14  1  0  0  0  0
 14 15  1  0  0  0  0
 15 16  2  0  0  0  0
 15 17  1  0  0  0  0
 17 18  1  0  0  0  0
 18 19  1  0  0  0  0
 19 20  1  0  0  0  0
 20 21  1  0  0  0  0
 21 22  2  0  0  0  0
 21 23  1  0  0  0  0
 23 24  1  0  0  0  0
 24 25  1  0  0  0  0
 25 26  1  0  0  0  0
 26 27  1  0  0  0  0
 27 28  1  0  0  0  0
 28 29  1  0  0  0  0
 29 30  1  0  0  0  0
 30 31  1  0  0  0  0
 31 32  1  0  0  0  0
 32 33  1  0  0  0  0
 33 34  1  0  0  0  0
 34 35  1  0  0  0  0
 34 36  1  0  0  0  0
  1 37  1  0  0  0  0
  1 38  1  0  0  0  0
  1 39  1  0  0  0  0
  2 40  1  0  0  0  0
  3 41  1  0  0  0  0
  3 42  1  0  0  0  0
  3 43  1  0  0  0  0
  4 44  1  0  0  0  0
  4 45  1  0  0  0  0
  5 46  1  0  0  0  0
  5 47  1  0  0  0  0
  6 48  1  0  0  0  0
  6 49  1  0  0  0  0
  7 50  1  0  0  0  0
  7 51  1  0  0  0  0
  8 52  1  0  0  0  0
  8 53  1  0  0  0  0
  9 54  1  0  0  0  0
  9 55  1  0  0  0  0
 10 56  1  0  0  0  0
 10 57  1  0  0  0  0
 11 58  1  0  0  0  0
 11 59  1  0  0  0  0
 12 60  1  0  0  0  0
 12 61  1  0  0  0  0
 13 62  1  0  0  0  0
 13 63  1  0  0  0  0
 17 64  1  0  0  0  0
 17 65  1  0  0  0  0
 18 66  1  0  0  0  0
 18 67  1  0  0  0  0
 19 68  1  0  0  0  0
 19 69  1  0  0  0  0
 20 70  1  0  0  0  0
 20 71  1  0  0  0  0
 24 72  1  0  0  0  0
 24 73  1  0  0  0  0
 25 74  1  0  0  0  0
 25 75  1  0  0  0  0
 26 76  1  0  0  0  0
 26 77  1  0  0  0  0
 27 78  1  0  0  0  0
 27 79  1  0  0  0  0
 28 80  1  0  0  0  0
 28 81  1  0  0  0  0
 29 82  1  0  0  0  0
 29 83  1  0  0  0  0
 30 84  1  0  0  0  0
 30 85  1  0  0  0  0
 31 86  1  0  0  0  0
 31 87  1  0  0  0  0
 32 88  1  0  0  0  0
 32 89  1  0  0  0  0
 33 90  1  0  0  0  0
 33 91  1  0  0  0  0
 34 92  1  0  0  0  0
 35 93  1  0  0  0  0
 35 94  1  0  0  0  0
 35 95  1  0  0  0  0
 36 96  1  0  0  0  0
 36 97  1  0  0  0  0
 36 98  1  0  0  0  0
M  END
>  <id_input>
4164, 4165

>  <InChIKey>
WPUKZOKYKHYASK-UHFFFAOYSA-N

>  <substance_name>
diisotridecyl adipate

>  <casrn>
26401-35-4

>  <Molecular weight>
510.832275390625

>  <guideline>
OECD Guideline 404 (Acute Dermal Irritation / Corrosion)

>  <species>
rabbit

>  <type_of_coverage>
semiocclusive

>  <max_duration(hrs)>
4.0

>  <vehicle>
unchanged (no vehicle)

>  <edema/ erythema score>
0.332333333333333

>  <max_score>
4.0

>  <reversibility>
0.0

>  <Outcome>
0

>  <StandardizerResult>
Remove Explicit Hydrogens (ID: RemoveExplicitH)
Clear Stereo (ID: ClearStereo)
Wedge Clean (ID: WedgeClean)
Mesomerize (ID: Mesomerize)
Tautomerize (ID: Tautomerize)
Add Explicit Hydrogens (ID: AddExplicitH)
Neutralize (ID: Neutralize)
Clean 2D (ID: Clean2D)


$$$$

  Mrv1812 02121911042D          

 24 23  0  0  0  0            999 V2000
    2.7756    0.6144    0.0000 C   0  0  0  0  0  0  0  0  0  0  0  0
    1.9506    0.6144    0.0000 C   0  0  0  0  0  0  0  0  0  0  0  0
    1.5381   -0.1001    0.0000 O   0  0  0  0  0  0  0  0  0  0  0  0
    0.7131   -0.1001    0.0000 C   0  0  0  0  0  0  0  0  0  0  0  0
    0.3006    0.6144    0.0000 O   0  0  0  0  0  0  0  0  0  0  0  0
    0.3006   -0.8146    0.0000 C   0  0  0  0  0  0  0  0  0  0  0  0
   -0.5244   -0.8146    0.0000 C   0  0  0  0  0  0  0  0  0  0  0  0
   -0.9369   -1.5290    0.0000 C   0  0  0  0  0  0  0  0  0  0  0  0
   -1.7619   -1.5290    0.0000 O   0  0  0  0  0  0  0  0  0  0  0  0
   -0.5244   -2.2435    0.0000 O   0  0  0  0  0  0  0  0  0  0  0  0
   -0.9369   -2.9580    0.0000 C   0  0  0  0  0  0  0  0  0  0  0  0
   -0.5244   -3.6724    0.0000 C   0  0  0  0  0  0  0  0  0  0  0  0
    2.7756   -0.2106    0.0000 H   0  0  0  0  0  0  0  0  0  0  0  0
    3.6006    0.6144    0.0000 H   0  0  0  0  0  0  0  0  0  0  0  0
    2.7756    1.4394    0.0000 H   0  0  0  0  0  0  0  0  0  0  0  0
    1.9026    1.4380    0.0000 H   0  0  0  0  0  0  0  0  0  0  0  0
    1.2613    1.0677    0.0000 H   0  0  0  0  0  0  0  0  0  0  0  0
    0.7131   -1.5290    0.0000 H   0  0  0  0  0  0  0  0  0  0  0  0
   -0.9369   -0.1001    0.0000 H   0  0  0  0  0  0  0  0  0  0  0  0
   -1.6741   -2.5877    0.0000 H   0  0  0  0  0  0  0  0  0  0  0  0
   -1.6741   -3.3282    0.0000 H   0  0  0  0  0  0  0  0  0  0  0  0
   -1.2389   -4.0849    0.0000 H   0  0  0  0  0  0  0  0  0  0  0  0
   -0.1119   -4.3869    0.0000 H   0  0  0  0  0  0  0  0  0  0  0  0
    0.1901   -3.2599    0.0000 H   0  0  0  0  0  0  0  0  0  0  0  0
  1  2  1  0  0  0  0
  2  3  1  0  0  0  0
  3  4  1  0  0  0  0
  4  5  2  0  0  0  0
  6  4  1  4  0  0  0
  6  7  2  0  0  0  0
  7  8  1  0  0  0  0
  8  9  2  0  0  0  0
  8 10  1  0  0  0  0
 10 11  1  0  0  0  0
 11 12  1  0  0  0  0
  1 13  1  0  0  0  0
  1 14  1  0  0  0  0
  1 15  1  0  0  0  0
  2 16  1  0  0  0  0
  2 17  1  0  0  0  0
  6 18  1  0  0  0  0
  7 19  1  0  0  0  0
 11 20  1  0  0  0  0
 11 21  1  0  0  0  0
 12 22  1  0  0  0  0
 12 23  1  0  0  0  0
 12 24  1  0  0  0  0
M  END
>  <id_input>
4148

>  <InChIKey>
IEPRKVQEAMIZSS-UHFFFAOYSA-N

>  <substance_name>
diethyl but-2-enedioate

>  <casrn>
141-05-9

>  <Molecular weight>
172.17848205566406

>  <guideline>
OECD Guideline 404 (Acute Dermal Irritation / Corrosion)

>  <species>
rabbit

>  <type_of_coverage>
semiocclusive

>  <max_duration(hrs)>
4.0

>  <vehicle>
unchanged (no vehicle)

>  <edema/ erythema score>
0.1

>  <max_score>
1.0

>  <reversibility>
0.0

>  <Outcome>
0

>  <StandardizerResult>
Remove Explicit Hydrogens (ID: RemoveExplicitH)
Clear Stereo (ID: ClearStereo)
Wedge Clean (ID: WedgeClean)
Mesomerize (ID: Mesomerize)
Tautomerize (ID: Tautomerize)
Add Explicit Hydrogens (ID: AddExplicitH)
Neutralize (ID: Neutralize)
Clean 2D (ID: Clean2D)


$$$$

  Mrv1812 02121911042D          

 11 10  0  0  0  0            999 V2000
    0.9918    1.2167    0.0000 C   0  0  0  0  0  0  0  0  0  0  0  0
    1.4043    0.5022    0.0000 O   0  0  0  0  0  0  0  0  0  0  0  0
    0.9918   -0.2122    0.0000 C   0  0  0  0  0  0  0  0  0  0  0  0
    1.4043   -0.9267    0.0000 C   0  0  0  0  0  0  0  0  0  0  0  0
    0.1668   -0.2122    0.0000 O   0  0  0  0  0  0  0  0  0  0  0  0
    1.7063    1.6292    0.0000 H   0  0  0  0  0  0  0  0  0  0  0  0
    0.5793    1.9312    0.0000 H   0  0  0  0  0  0  0  0  0  0  0  0
    0.2773    0.8042    0.0000 H   0  0  0  0  0  0  0  0  0  0  0  0
    0.6898   -1.3392    0.0000 H   0  0  0  0  0  0  0  0  0  0  0  0
    1.8168   -1.6412    0.0000 H   0  0  0  0  0  0  0  0  0  0  0  0
    2.1188   -0.5142    0.0000 H   0  0  0  0  0  0  0  0  0  0  0  0
  1  2  1  0  0  0  0
  2  3  1  0  0  0  0
  3  4  1  0  0  0  0
  3  5  2  0  0  0  0
  1  6  1  0  0  0  0
  1  7  1  0  0  0  0
  1  8  1  0  0  0  0
  4  9  1  0  0  0  0
  4 10  1  0  0  0  0
  4 11  1  0  0  0  0
M  END
>  <id_input>
4557

>  <InChIKey>
KXKVLQRXCPHEJC-UHFFFAOYSA-N

>  <substance_name>
methyl acetate

>  <casrn>
79-20-9

>  <Molecular weight>
74.07854461669922

>  <guideline>
EU Method B.4 (Acute Toxicity: Dermal Irritation / Corrosion)

>  <species>
rabbit

>  <type_of_coverage>
semiocclusive

>  <max_duration(hrs)>
4.0

>  <vehicle>
unchanged (no vehicle)

>  <edema/ erythema score>
0.2

>  <max_score>
0.3

>  <reversibility>
0.0

>  <Outcome>
0

>  <StandardizerResult>
Remove Explicit Hydrogens (ID: RemoveExplicitH)
Clear Stereo (ID: ClearStereo)
Wedge Clean (ID: WedgeClean)
Mesomerize (ID: Mesomerize)
Tautomerize (ID: Tautomerize)
Add Explicit Hydrogens (ID: AddExplicitH)
Neutralize (ID: Neutralize)
Clean 2D (ID: Clean2D)


$$$$

  Mrv1812 02121911042D          

 15 15  0  0  0  0            999 V2000
    2.2024    0.1925    0.0000 Cl  0  0  0  0  0  0  0  0  0  0  0  0
    1.4879    0.6050    0.0000 C   0  0  0  0  0  0  0  0  0  0  0  0
    1.4879    1.4300    0.0000 Cl  0  0  0  0  0  0  0  0  0  0  0  0
    0.7734    0.1925    0.0000 C   0  0  0  0  0  0  0  0  0  0  0  0
    0.0590    0.6050    0.0000 C   0  0  0  0  0  0  0  0  0  0  0  0
    0.0590    1.4300    0.0000 Cl  0  0  0  0  0  0  0  0  0  0  0  0
   -0.6555    0.1925    0.0000 C   0  0  0  0  0  0  0  0  0  0  0  0
   -0.6555   -0.6325    0.0000 C   0  0  0  0  0  0  0  0  0  0  0  0
    0.0590   -1.0450    0.0000 C   0  0  0  0  0  0  0  0  0  0  0  0
    0.7734   -0.6325    0.0000 C   0  0  0  0  0  0  0  0  0  0  0  0
    1.4879   -1.0450    0.0000 Cl  0  0  0  0  0  0  0  0  0  0  0  0
    2.2024    1.0175    0.0000 H   0  0  0  0  0  0  0  0  0  0  0  0
   -1.3700    0.6050    0.0000 H   0  0  0  0  0  0  0  0  0  0  0  0
   -1.3700   -1.0450    0.0000 H   0  0  0  0  0  0  0  0  0  0  0  0
    0.0590   -1.8700    0.0000 H   0  0  0  0  0  0  0  0  0  0  0  0
  1  2  1  0  0  0  0
  2  3  1  0  0  0  0
  2  4  1  0  0  0  0
  5  4  4  0  0  0  0
  5  6  1  0  0  0  0
  7  5  4  0  0  0  0
  8  7  4  0  0  0  0
  9  8  4  0  0  0  0
 10  9  4  0  0  0  0
 10 11  1  0  0  0  0
  4 10  4  0  0  0  0
  2 12  1  0  0  0  0
  7 13  1  0  0  0  0
  8 14  1  0  0  0  0
  9 15  1  0  0  0  0
M  END
>  <id_input>
1769

>  <InChIKey>
QQPXXHAEIGVZKQ-UHFFFAOYSA-N

>  <substance_name>
1,3-dichloro-2-(dichloromethyl)benzene

>  <casrn>
81-19-6

>  <Molecular weight>
229.9186553955078

>  <guideline>
OECD Guideline 404 (Acute Dermal Irritation / Corrosion)

>  <species>
rabbit

>  <type_of_coverage>
semiocclusive

>  <max_duration(hrs)>
4.0

>  <vehicle>
unchanged (no vehicle)

>  <edema/ erythema score>
0.8

>  <max_score>
4.0

>  <reversibility>
0.0

>  <Outcome>
0

>  <StandardizerResult>
Remove Explicit Hydrogens (ID: RemoveExplicitH)
Dearomatize (ID: Dearomatize)
Clear Stereo (ID: ClearStereo)
Wedge Clean (ID: WedgeClean)
Mesomerize (ID: Mesomerize)
Tautomerize (ID: Tautomerize)
Aromatize (ID: Aromatize)
Add Explicit Hydrogens (ID: AddExplicitH)
Neutralize (ID: Neutralize)
Clean 2D (ID: Clean2D)


$$$$

  Mrv1812 02121911042D          

104103  0  0  0  0            999 V2000
    7.3416    8.7549    0.0000 O   0  0  0  0  0  0  0  0  0  0  0  0
    7.3416    9.5799    0.0000 C   0  0  0  0  0  0  0  0  0  0  0  0
    6.6272    9.9924    0.0000 O   0  0  0  0  0  0  0  0  0  0  0  0
    5.9127    9.5799    0.0000 C   0  0  0  0  0  0  0  0  0  0  0  0
    5.1982    9.9924    0.0000 C   0  0  0  0  0  0  0  0  0  0  0  0
    4.4838    9.5799    0.0000 C   0  0  0  0  0  0  0  0  0  0  0  0
    3.7693    9.9924    0.0000 C   0  0  0  0  0  0  0  0  0  0  0  0
    3.0548    9.5799    0.0000 C   0  0  0  0  0  0  0  0  0  0  0  0
    2.3403    9.9924    0.0000 C   0  0  0  0  0  0  0  0  0  0  0  0
    1.6259    9.5799    0.0000 C   0  0  0  0  0  0  0  0  0  0  0  0
    0.9114    9.9924    0.0000 C   0  0  0  0  0  0  0  0  0  0  0  0
    0.1969    9.5799    0.0000 C   0  0  0  0  0  0  0  0  0  0  0  0
   -0.5175    9.9924    0.0000 C   0  0  0  0  0  0  0  0  0  0  0  0
   -1.2320    9.5799    0.0000 C   0  0  0  0  0  0  0  0  0  0  0  0
   -1.9465    9.9924    0.0000 C   0  0  0  0  0  0  0  0  0  0  0  0
   -2.6610    9.5799    0.0000 C   0  0  0  0  0  0  0  0  0  0  0  0
   -3.3754    9.9924    0.0000 C   0  0  0  0  0  0  0  0  0  0  0  0
   -4.0899    9.5799    0.0000 C   0  0  0  0  0  0  0  0  0  0  0  0
   -4.8044    9.9924    0.0000 C   0  0  0  0  0  0  0  0  0  0  0  0
   -5.5188    9.5799    0.0000 C   0  0  0  0  0  0  0  0  0  0  0  0
   -4.8044   10.8174    0.0000 C   0  0  0  0  0  0  0  0  0  0  0  0
    8.0561    9.9924    0.0000 C   0  0  0  0  0  0  0  0  0  0  0  0
    8.7706    9.5799    0.0000 C   0  0  0  0  0  0  0  0  0  0  0  0
    9.4851    9.9924    0.0000 C   0  0  0  0  0  0  0  0  0  0  0  0
   10.1995    9.5799    0.0000 C   0  0  0  0  0  0  0  0  0  0  0  0
   10.9140    9.9924    0.0000 C   0  0  0  0  0  0  0  0  0  0  0  0
   11.6285    9.5799    0.0000 C   0  0  0  0  0  0  0  0  0  0  0  0
   12.3429    9.9924    0.0000 C   0  0  0  0  0  0  0  0  0  0  0  0
   13.0574    9.5799    0.0000 C   0  0  0  0  0  0  0  0  0  0  0  0
   13.7719    9.9924    0.0000 C   0  0  0  0  0  0  0  0  0  0  0  0
   14.4863    9.5799    0.0000 C   0  0  0  0  0  0  0  0  0  0  0  0
   15.2008    9.9924    0.0000 C   0  0  0  0  0  0  0  0  0  0  0  0
   15.9153    9.5799    0.0000 C   0  0  0  0  0  0  0  0  0  0  0  0
   16.6298    9.9924    0.0000 C   0  0  0  0  0  0  0  0  0  0  0  0
   17.3442    9.5799    0.0000 C   0  0  0  0  0  0  0  0  0  0  0  0
   18.0587    9.9924    0.0000 C   0  0  0  0  0  0  0  0  0  0  0  0
    5.5424    8.8426    0.0000 H   0  0  0  0  0  0  0  0  0  0  0  0
    6.2830    8.8426    0.0000 H   0  0  0  0  0  0  0  0  0  0  0  0
    5.5685   10.7296    0.0000 H   0  0  0  0  0  0  0  0  0  0  0  0
    4.8280   10.7296    0.0000 H   0  0  0  0  0  0  0  0  0  0  0  0
    4.1135    8.8426    0.0000 H   0  0  0  0  0  0  0  0  0  0  0  0
    4.8540    8.8426    0.0000 H   0  0  0  0  0  0  0  0  0  0  0  0
    4.1395   10.7296    0.0000 H   0  0  0  0  0  0  0  0  0  0  0  0
    3.3990   10.7296    0.0000 H   0  0  0  0  0  0  0  0  0  0  0  0
    2.6846    8.8426    0.0000 H   0  0  0  0  0  0  0  0  0  0  0  0
    3.4251    8.8426    0.0000 H   0  0  0  0  0  0  0  0  0  0  0  0
    2.7106   10.7296    0.0000 H   0  0  0  0  0  0  0  0  0  0  0  0
    1.9701   10.7296    0.0000 H   0  0  0  0  0  0  0  0  0  0  0  0
    1.2556    8.8426    0.0000 H   0  0  0  0  0  0  0  0  0  0  0  0
    1.9961    8.8426    0.0000 H   0  0  0  0  0  0  0  0  0  0  0  0
    1.2817   10.7296    0.0000 H   0  0  0  0  0  0  0  0  0  0  0  0
    0.5411   10.7296    0.0000 H   0  0  0  0  0  0  0  0  0  0  0  0
   -0.1733    8.8426    0.0000 H   0  0  0  0  0  0  0  0  0  0  0  0
    0.5672    8.8426    0.0000 H   0  0  0  0  0  0  0  0  0  0  0  0
   -0.1473   10.7296    0.0000 H   0  0  0  0  0  0  0  0  0  0  0  0
   -0.8878   10.7296    0.0000 H   0  0  0  0  0  0  0  0  0  0  0  0
   -1.6023    8.8426    0.0000 H   0  0  0  0  0  0  0  0  0  0  0  0
   -0.8618    8.8426    0.0000 H   0  0  0  0  0  0  0  0  0  0  0  0
   -1.5762   10.7296    0.0000 H   0  0  0  0  0  0  0  0  0  0  0  0
   -2.3167   10.7296    0.0000 H   0  0  0  0  0  0  0  0  0  0  0  0
   -3.0312    8.8426    0.0000 H   0  0  0  0  0  0  0  0  0  0  0  0
   -2.2907    8.8426    0.0000 H   0  0  0  0  0  0  0  0  0  0  0  0
   -3.0052   10.7296    0.0000 H   0  0  0  0  0  0  0  0  0  0  0  0
   -3.7457   10.7296    0.0000 H   0  0  0  0  0  0  0  0  0  0  0  0
   -4.4602    8.8426    0.0000 H   0  0  0  0  0  0  0  0  0  0  0  0
   -3.7196    8.8426    0.0000 H   0  0  0  0  0  0  0  0  0  0  0  0
   -4.8044    9.1674    0.0000 H   0  0  0  0  0  0  0  0  0  0  0  0
   -5.7324   10.3767    0.0000 H   0  0  0  0  0  0  0  0  0  0  0  0
   -6.3438    9.5799    0.0000 H   0  0  0  0  0  0  0  0  0  0  0  0
   -5.7324    8.7830    0.0000 H   0  0  0  0  0  0  0  0  0  0  0  0
   -3.9794   10.8174    0.0000 H   0  0  0  0  0  0  0  0  0  0  0  0
   -4.8044   11.6424    0.0000 H   0  0  0  0  0  0  0  0  0  0  0  0
   -5.6294   10.8174    0.0000 H   0  0  0  0  0  0  0  0  0  0  0  0
    8.4264   10.7296    0.0000 H   0  0  0  0  0  0  0  0  0  0  0  0
    7.6859   10.7296    0.0000 H   0  0  0  0  0  0  0  0  0  0  0  0
    8.4003    8.8426    0.0000 H   0  0  0  0  0  0  0  0  0  0  0  0
    9.1408    8.8426    0.0000 H   0  0  0  0  0  0  0  0  0  0  0  0
    9.8553   10.7296    0.0000 H   0  0  0  0  0  0  0  0  0  0  0  0
    9.1148   10.7296    0.0000 H   0  0  0  0  0  0  0  0  0  0  0  0
    9.8293    8.8426    0.0000 H   0  0  0  0  0  0  0  0  0  0  0  0
   10.5698    8.8426    0.0000 H   0  0  0  0  0  0  0  0  0  0  0  0
   11.2843   10.7296    0.0000 H   0  0  0  0  0  0  0  0  0  0  0  0
   10.5437   10.7296    0.0000 H   0  0  0  0  0  0  0  0  0  0  0  0
   11.2582    8.8426    0.0000 H   0  0  0  0  0  0  0  0  0  0  0  0
   11.9987    8.8426    0.0000 H   0  0  0  0  0  0  0  0  0  0  0  0
   12.7132   10.7296    0.0000 H   0  0  0  0  0  0  0  0  0  0  0  0
   11.9727   10.7296    0.0000 H   0  0  0  0  0  0  0  0  0  0  0  0
   12.6871    8.8426    0.0000 H   0  0  0  0  0  0  0  0  0  0  0  0
   13.4277    8.8426    0.0000 H   0  0  0  0  0  0  0  0  0  0  0  0
   14.1421   10.7296    0.0000 H   0  0  0  0  0  0  0  0  0  0  0  0
   13.4016   10.7296    0.0000 H   0  0  0  0  0  0  0  0  0  0  0  0
   14.1161    8.8426    0.0000 H   0  0  0  0  0  0  0  0  0  0  0  0
   14.8566    8.8426    0.0000 H   0  0  0  0  0  0  0  0  0  0  0  0
   15.5711   10.7296    0.0000 H   0  0  0  0  0  0  0  0  0  0  0  0
   14.8306   10.7296    0.0000 H   0  0  0  0  0  0  0  0  0  0  0  0
   15.5450    8.8426    0.0000 H   0  0  0  0  0  0  0  0  0  0  0  0
   16.2856    8.8426    0.0000 H   0  0  0  0  0  0  0  0  0  0  0  0
   17.0000   10.7296    0.0000 H   0  0  0  0  0  0  0  0  0  0  0  0
   16.2595   10.7296    0.0000 H   0  0  0  0  0  0  0  0  0  0  0  0
   16.9740    8.8426    0.0000 H   0  0  0  0  0  0  0  0  0  0  0  0
   17.7145    8.8426    0.0000 H   0  0  0  0  0  0  0  0  0  0  0  0
   18.4712    9.2779    0.0000 H   0  0  0  0  0  0  0  0  0  0  0  0
   18.7732   10.4049    0.0000 H   0  0  0  0  0  0  0  0  0  0  0  0
   17.6462   10.7068    0.0000 H   0  0  0  0  0  0  0  0  0  0  0  0
  1  2  2  0  0  0  0
  2  3  1  0  0  0  0
  3  4  1  0  0  0  0
  4  5  1  0  0  0  0
  5  6  1  0  0  0  0
  6  7  1  0  0  0  0
  7  8  1  0  0  0  0
  8  9  1  0  0  0  0
  9 10  1  0  0  0  0
 10 11  1  0  0  0  0
 11 12  1  0  0  0  0
 12 13  1  0  0  0  0
 13 14  1  0  0  0  0
 14 15  1  0  0  0  0
 15 16  1  0  0  0  0
 16 17  1  0  0  0  0
 17 18  1  0  0  0  0
 18 19  1  0  0  0  0
 19 20  1  0  0  0  0
 19 21  1  0  0  0  0
  2 22  1  0  0  0  0
 22 23  1  0  0  0  0
 23 24  1  0  0  0  0
 24 25  1  0  0  0  0
 25 26  1  0  0  0  0
 26 27  1  0  0  0  0
 27 28  1  0  0  0  0
 28 29  1  0  0  0  0
 29 30  1  0  0  0  0
 30 31  1  0  0  0  0
 31 32  1  0  0  0  0
 32 33  1  0  0  0  0
 33 34  1  0  0  0  0
 34 35  1  0  0  0  0
 35 36  1  0  0  0  0
  4 37  1  0  0  0  0
  4 38  1  0  0  0  0
  5 39  1  0  0  0  0
  5 40  1  0  0  0  0
  6 41  1  0  0  0  0
  6 42  1  0  0  0  0
  7 43  1  0  0  0  0
  7 44  1  0  0  0  0
  8 45  1  0  0  0  0
  8 46  1  0  0  0  0
  9 47  1  0  0  0  0
  9 48  1  0  0  0  0
 10 49  1  0  0  0  0
 10 50  1  0  0  0  0
 11 51  1  0  0  0  0
 11 52  1  0  0  0  0
 12 53  1  0  0  0  0
 12 54  1  0  0  0  0
 13 55  1  0  0  0  0
 13 56  1  0  0  0  0
 14 57  1  0  0  0  0
 14 58  1  0  0  0  0
 15 59  1  0  0  0  0
 15 60  1  0  0  0  0
 16 61  1  0  0  0  0
 16 62  1  0  0  0  0
 17 63  1  0  0  0  0
 17 64  1  0  0  0  0
 18 65  1  0  0  0  0
 18 66  1  0  0  0  0
 19 67  1  0  0  0  0
 20 68  1  0  0  0  0
 20 69  1  0  0  0  0
 20 70  1  0  0  0  0
 21 71  1  0  0  0  0
 21 72  1  0  0  0  0
 21 73  1  0  0  0  0
 22 74  1  0  0  0  0
 22 75  1  0  0  0  0
 23 76  1  0  0  0  0
 23 77  1  0  0  0  0
 24 78  1  0  0  0  0
 24 79  1  0  0  0  0
 25 80  1  0  0  0  0
 25 81  1  0  0  0  0
 26 82  1  0  0  0  0
 26 83  1  0  0  0  0
 27 84  1  0  0  0  0
 27 85  1  0  0  0  0
 28 86  1  0  0  0  0
 28 87  1  0  0  0  0
 29 88  1  0  0  0  0
 29 89  1  0  0  0  0
 30 90  1  0  0  0  0
 30 91  1  0  0  0  0
 31 92  1  0  0  0  0
 31 93  1  0  0  0  0
 32 94  1  0  0  0  0
 32 95  1  0  0  0  0
 33 96  1  0  0  0  0
 33 97  1  0  0  0  0
 34 98  1  0  0  0  0
 34 99  1  0  0  0  0
 35100  1  0  0  0  0
 35101  1  0  0  0  0
 36102  1  0  0  0  0
 36103  1  0  0  0  0
 36104  1  0  0  0  0
M  END
>  <id_input>
961

>  <InChIKey>
SAMYFBLRCRWESN-UHFFFAOYSA-N

>  <substance_name>
-

>  <casrn>
72576-80-8

>  <Molecular weight>
508.90252685546875

>  <guideline>
EU Method B.4 (Acute Toxicity: Dermal Irritation / Corrosion)

>  <species>
rabbit

>  <type_of_coverage>
semiocclusive

>  <max_duration(hrs)>
4.0

>  <vehicle>
unchanged (no vehicle)

>  <edema/ erythema score>
0.0

>  <max_score>
4.0

>  <reversibility>
0.0

>  <Outcome>
0

>  <StandardizerResult>
Remove Explicit Hydrogens (ID: RemoveExplicitH)
Clear Stereo (ID: ClearStereo)
Wedge Clean (ID: WedgeClean)
Mesomerize (ID: Mesomerize)
Tautomerize (ID: Tautomerize)
Add Explicit Hydrogens (ID: AddExplicitH)
Neutralize (ID: Neutralize)
Clean 2D (ID: Clean2D)


$$$$

  Mrv1812 02121911042D          

 22 22  0  0  0  0            999 V2000
    0.8395    0.5684    0.0000 C   0  0  0  0  0  0  0  0  0  0  0  0
    0.0773    0.8841    0.0000 C   0  0  0  0  0  0  0  0  0  0  0  0
   -0.6849    0.5684    0.0000 C   0  0  0  0  0  0  0  0  0  0  0  0
   -1.0006   -0.1938    0.0000 C   0  0  0  0  0  0  0  0  0  0  0  0
   -0.6849   -0.9560    0.0000 C   0  0  0  0  0  0  0  0  0  0  0  0
    0.0773   -1.2717    0.0000 C   0  0  0  0  0  0  0  0  0  0  0  0
    0.8395   -0.9560    0.0000 C   0  0  0  0  0  0  0  0  0  0  0  0
    1.1552   -0.1938    0.0000 C   0  0  0  0  0  0  0  0  0  0  0  0
    1.6147    0.8506    0.0000 H   0  0  0  0  0  0  0  0  0  0  0  0
    1.1217    1.3436    0.0000 H   0  0  0  0  0  0  0  0  0  0  0  0
    0.4260    1.6318    0.0000 H   0  0  0  0  0  0  0  0  0  0  0  0
   -0.2714    1.6318    0.0000 H   0  0  0  0  0  0  0  0  0  0  0  0
   -0.9671    1.3436    0.0000 H   0  0  0  0  0  0  0  0  0  0  0  0
   -1.4601    0.8506    0.0000 H   0  0  0  0  0  0  0  0  0  0  0  0
   -1.7483    0.1549    0.0000 H   0  0  0  0  0  0  0  0  0  0  0  0
   -1.7483   -0.5425    0.0000 H   0  0  0  0  0  0  0  0  0  0  0  0
   -1.2683   -1.5394    0.0000 H   0  0  0  0  0  0  0  0  0  0  0  0
    0.0773   -2.0967    0.0000 H   0  0  0  0  0  0  0  0  0  0  0  0
    1.1217   -1.7313    0.0000 H   0  0  0  0  0  0  0  0  0  0  0  0
    1.6147   -1.2382    0.0000 H   0  0  0  0  0  0  0  0  0  0  0  0
    1.9029   -0.5425    0.0000 H   0  0  0  0  0  0  0  0  0  0  0  0
    1.9029    0.1549    0.0000 H   0  0  0  0  0  0  0  0  0  0  0  0
  2  1  1  0  0  0  0
  3  2  1  0  0  0  0
  4  3  1  0  0  0  0
  5  4  1  0  0  0  0
  6  5  2  0  0  0  0
  6  7  1  4  0  0  0
  8  7  1  0  0  0  0
  1  8  1  0  0  0  0
  1  9  1  0  0  0  0
  1 10  1  0  0  0  0
  2 11  1  0  0  0  0
  2 12  1  0  0  0  0
  3 13  1  0  0  0  0
  3 14  1  0  0  0  0
  4 15  1  0  0  0  0
  4 16  1  0  0  0  0
  5 17  1  0  0  0  0
  6 18  1  0  0  0  0
  7 19  1  0  0  0  0
  7 20  1  0  0  0  0
  8 21  1  0  0  0  0
  8 22  1  0  0  0  0
M  END
>  <id_input>
4039

>  <InChIKey>
URYYVOIYTNXXBN-UPHRSURJSA-N

>  <substance_name>
cyclooctene

>  <casrn>
931-87-3

>  <Molecular weight>
110.19676208496094

>  <guideline>
OECD Guideline 404 (Acute Dermal Irritation / Corrosion)

>  <species>
rabbit

>  <type_of_coverage>
occlusive

>  <max_duration(hrs)>
4.0

>  <vehicle>
other: no vehicle

>  <edema/ erythema score>
1.11

>  <reversibility>
0.0

>  <Outcome>
0

>  <StandardizerResult>
Remove Explicit Hydrogens (ID: RemoveExplicitH)
Clear Stereo (ID: ClearStereo)
Wedge Clean (ID: WedgeClean)
Mesomerize (ID: Mesomerize)
Tautomerize (ID: Tautomerize)
Add Explicit Hydrogens (ID: AddExplicitH)
Neutralize (ID: Neutralize)
Clean 2D (ID: Clean2D)


$$$$

  Mrv1812 02121911042D          

 37 36  0  0  0  0            999 V2000
    0.0005    0.2899    0.0000 C   0  0  0  0  0  0  0  0  0  0  0  0
    0.7149   -0.1226    0.0000 O   0  0  0  0  0  0  0  0  0  0  0  0
    1.4294    0.2899    0.0000 C   0  0  0  0  0  0  0  0  0  0  0  0
    2.1439   -0.1226    0.0000 C   0  0  0  0  0  0  0  0  0  0  0  0
    2.8584    0.2899    0.0000 O   0  0  0  0  0  0  0  0  0  0  0  0
    3.5728   -0.1226    0.0000 C   0  0  0  0  0  0  0  0  0  0  0  0
    4.2873    0.2899    0.0000 C   0  0  0  0  0  0  0  0  0  0  0  0
    5.0018   -0.1226    0.0000 O   0  0  0  0  0  0  0  0  0  0  0  0
    5.7162    0.2899    0.0000 C   0  0  0  0  0  0  0  0  0  0  0  0
    6.4307   -0.1226    0.0000 C   0  0  0  0  0  0  0  0  0  0  0  0
    7.1452    0.2899    0.0000 O   0  0  0  0  0  0  0  0  0  0  0  0
    7.8597   -0.1226    0.0000 C   0  0  0  0  0  0  0  0  0  0  0  0
    8.5741    0.2899    0.0000 C   0  0  0  0  0  0  0  0  0  0  0  0
    9.2886   -0.1226    0.0000 O   0  0  0  0  0  0  0  0  0  0  0  0
   10.0031    0.2899    0.0000 C   0  0  0  0  0  0  0  0  0  0  0  0
    0.4130    1.0044    0.0000 H   0  0  0  0  0  0  0  0  0  0  0  0
   -0.7140    0.7024    0.0000 H   0  0  0  0  0  0  0  0  0  0  0  0
   -0.4120   -0.4246    0.0000 H   0  0  0  0  0  0  0  0  0  0  0  0
    1.7997    1.0271    0.0000 H   0  0  0  0  0  0  0  0  0  0  0  0
    1.0592    1.0271    0.0000 H   0  0  0  0  0  0  0  0  0  0  0  0
    1.7736   -0.8598    0.0000 H   0  0  0  0  0  0  0  0  0  0  0  0
    2.5141   -0.8598    0.0000 H   0  0  0  0  0  0  0  0  0  0  0  0
    3.2026   -0.8598    0.0000 H   0  0  0  0  0  0  0  0  0  0  0  0
    3.9431   -0.8598    0.0000 H   0  0  0  0  0  0  0  0  0  0  0  0
    4.6576    1.0271    0.0000 H   0  0  0  0  0  0  0  0  0  0  0  0
    3.9170    1.0271    0.0000 H   0  0  0  0  0  0  0  0  0  0  0  0
    6.0865    1.0271    0.0000 H   0  0  0  0  0  0  0  0  0  0  0  0
    5.3460    1.0271    0.0000 H   0  0  0  0  0  0  0  0  0  0  0  0
    6.0605   -0.8598    0.0000 H   0  0  0  0  0  0  0  0  0  0  0  0
    6.8010   -0.8598    0.0000 H   0  0  0  0  0  0  0  0  0  0  0  0
    7.4894   -0.8598    0.0000 H   0  0  0  0  0  0  0  0  0  0  0  0
    8.2299   -0.8598    0.0000 H   0  0  0  0  0  0  0  0  0  0  0  0
    8.9444    1.0271    0.0000 H   0  0  0  0  0  0  0  0  0  0  0  0
    8.2039    1.0271    0.0000 H   0  0  0  0  0  0  0  0  0  0  0  0
   10.4156   -0.4246    0.0000 H   0  0  0  0  0  0  0  0  0  0  0  0
   10.7175    0.7024    0.0000 H   0  0  0  0  0  0  0  0  0  0  0  0
    9.5906    1.0044    0.0000 H   0  0  0  0  0  0  0  0  0  0  0  0
  1  2  1  0  0  0  0
  2  3  1  0  0  0  0
  3  4  1  0  0  0  0
  4  5  1  0  0  0  0
  5  6  1  0  0  0  0
  6  7  1  0  0  0  0
  7  8  1  0  0  0  0
  8  9  1  0  0  0  0
  9 10  1  0  0  0  0
 10 11  1  0  0  0  0
 11 12  1  0  0  0  0
 12 13  1  0  0  0  0
 13 14  1  0  0  0  0
 14 15  1  0  0  0  0
  1 16  1  0  0  0  0
  1 17  1  0  0  0  0
  1 18  1  0  0  0  0
  3 19  1  0  0  0  0
  3 20  1  0  0  0  0
  4 21  1  0  0  0  0
  4 22  1  0  0  0  0
  6 23  1  0  0  0  0
  6 24  1  0  0  0  0
  7 25  1  0  0  0  0
  7 26  1  0  0  0  0
  9 27  1  0  0  0  0
  9 28  1  0  0  0  0
 10 29  1  0  0  0  0
 10 30  1  0  0  0  0
 12 31  1  0  0  0  0
 12 32  1  0  0  0  0
 13 33  1  0  0  0  0
 13 34  1  0  0  0  0
 15 35  1  0  0  0  0
 15 36  1  0  0  0  0
 15 37  1  0  0  0  0
M  END
>  <id_input>
2133

>  <InChIKey>
ZUHZGEOKBKGPSW-UHFFFAOYSA-N

>  <substance_name>
2,5,8,11,14-pentaoxapentadecane

>  <casrn>
143-24-8

>  <Molecular weight>
222.2786865234375

>  <guideline>
OECD Guideline 404 (Acute Dermal Irritation / Corrosion)

>  <species>
rabbit

>  <type_of_coverage>
semiocclusive

>  <max_duration(hrs)>
4.0

>  <vehicle>
unchanged (no vehicle)

>  <edema/ erythema score>
0.775

>  <max_score>
2.0

>  <reversibility>
0.0

>  <Outcome>
0

>  <StandardizerResult>
Remove Explicit Hydrogens (ID: RemoveExplicitH)
Clear Stereo (ID: ClearStereo)
Wedge Clean (ID: WedgeClean)
Mesomerize (ID: Mesomerize)
Tautomerize (ID: Tautomerize)
Add Explicit Hydrogens (ID: AddExplicitH)
Neutralize (ID: Neutralize)
Clean 2D (ID: Clean2D)


$$$$

  Mrv1812 02121911042D          

  7  7  0  0  0  0            999 V2000
    0.2821   -0.1234    0.0000 C   0  0  0  0  0  0  0  0  0  0  0  0
   -0.1304    0.5911    0.0000 C   0  0  0  0  0  0  0  0  0  0  0  0
   -0.5429   -0.1234    0.0000 O   0  0  0  0  0  0  0  0  0  0  0  0
    0.6523   -0.8607    0.0000 H   0  0  0  0  0  0  0  0  0  0  0  0
    1.1057   -0.0754    0.0000 H   0  0  0  0  0  0  0  0  0  0  0  0
    0.3229    1.2803    0.0000 H   0  0  0  0  0  0  0  0  0  0  0  0
   -0.5838    1.2803    0.0000 H   0  0  0  0  0  0  0  0  0  0  0  0
  2  1  1  0  0  0  0
  3  2  1  0  0  0  0
  1  3  1  0  0  0  0
  1  4  1  0  0  0  0
  1  5  1  0  0  0  0
  2  6  1  0  0  0  0
  2  7  1  0  0  0  0
M  END
>  <id_input>
3527

>  <InChIKey>
IAYPIBMASNFSPL-UHFFFAOYSA-N

>  <substance_name>
Oxirane, reaction products with ammonia, distn. residues

>  <casrn>
68953-70-8

>  <Molecular weight>
44.05255889892578

>  <guideline>
EU Method B.4 (Acute Toxicity: Dermal Irritation / Corrosion)

>  <species>
rabbit

>  <type_of_coverage>
semiocclusive

>  <max_duration(hrs)>
4.0

>  <vehicle>
unchanged (no vehicle)

>  <edema/ erythema score>
0.0

>  <max_score>
4.0

>  <reversibility>
0.0

>  <Outcome>
0

>  <StandardizerResult>
Remove Explicit Hydrogens (ID: RemoveExplicitH)
Mesomerize (ID: Mesomerize)
Tautomerize (ID: Tautomerize)
Add Explicit Hydrogens (ID: AddExplicitH)
Neutralize (ID: Neutralize)
Clean 2D (ID: Clean2D)


$$$$

  Mrv1812 02121911042D          

 23 22  0  0  0  0            999 V2000
   -0.1243   -0.0144    0.0000 C   0  0  0  0  0  0  0  0  0  0  0  0
    0.5901   -0.4269    0.0000 O   0  0  0  0  0  0  0  0  0  0  0  0
    1.3046   -0.0144    0.0000 C   0  0  0  0  0  0  0  0  0  0  0  0
    1.3046    0.8106    0.0000 O   0  0  0  0  0  0  0  0  0  0  0  0
    2.0191   -0.4269    0.0000 C   0  0  0  0  0  0  0  0  0  0  0  0
    2.7335   -0.0144    0.0000 C   0  0  0  0  0  0  0  0  0  0  0  0
    3.4480   -0.4269    0.0000 C   0  0  0  0  0  0  0  0  0  0  0  0
    4.1625   -0.0144    0.0000 C   0  0  0  0  0  0  0  0  0  0  0  0
    4.1625    0.8106    0.0000 O   0  0  0  0  0  0  0  0  0  0  0  0
    4.8770   -0.4269    0.0000 O   0  0  0  0  0  0  0  0  0  0  0  0
    5.5914   -0.0144    0.0000 C   0  0  0  0  0  0  0  0  0  0  0  0
    0.2882    0.7000    0.0000 H   0  0  0  0  0  0  0  0  0  0  0  0
   -0.8388    0.3981    0.0000 H   0  0  0  0  0  0  0  0  0  0  0  0
   -0.5368   -0.7289    0.0000 H   0  0  0  0  0  0  0  0  0  0  0  0
    1.6488   -1.1642    0.0000 H   0  0  0  0  0  0  0  0  0  0  0  0
    2.3893   -1.1642    0.0000 H   0  0  0  0  0  0  0  0  0  0  0  0
    3.1038    0.7228    0.0000 H   0  0  0  0  0  0  0  0  0  0  0  0
    2.3633    0.7228    0.0000 H   0  0  0  0  0  0  0  0  0  0  0  0
    3.0778   -1.1642    0.0000 H   0  0  0  0  0  0  0  0  0  0  0  0
    3.8183   -1.1642    0.0000 H   0  0  0  0  0  0  0  0  0  0  0  0
    6.0039   -0.7289    0.0000 H   0  0  0  0  0  0  0  0  0  0  0  0
    6.3059    0.3981    0.0000 H   0  0  0  0  0  0  0  0  0  0  0  0
    5.1789    0.7000    0.0000 H   0  0  0  0  0  0  0  0  0  0  0  0
  1  2  1  0  0  0  0
  2  3  1  0  0  0  0
  3  4  2  0  0  0  0
  3  5  1  0  0  0  0
  5  6  1  0  0  0  0
  6  7  1  0  0  0  0
  7  8  1  0  0  0  0
  8  9  2  0  0  0  0
  8 10  1  0  0  0  0
 10 11  1  0  0  0  0
  1 12  1  0  0  0  0
  1 13  1  0  0  0  0
  1 14  1  0  0  0  0
  5 15  1  0  0  0  0
  5 16  1  0  0  0  0
  6 17  1  0  0  0  0
  6 18  1  0  0  0  0
  7 19  1  0  0  0  0
  7 20  1  0  0  0  0
 11 21  1  0  0  0  0
 11 22  1  0  0  0  0
 11 23  1  0  0  0  0
M  END
>  <id_input>
1826

>  <InChIKey>
XTDYIOOONNVFMA-UHFFFAOYSA-N

>  <substance_name>
1,5-dimethyl pentanedioate

>  <casrn>
1119-40-0

>  <Molecular weight>
160.16778564453125

>  <guideline>
OECD Guideline 404 (Acute Dermal Irritation / Corrosion)

>  <species>
rabbit

>  <type_of_coverage>
semiocclusive

>  <max_duration(hrs)>
4.0

>  <vehicle>
unchanged (no vehicle)

>  <edema/ erythema score>
0.0

>  <max_score>
4.0

>  <reversibility>
0.0

>  <Outcome>
0

>  <StandardizerResult>
Remove Explicit Hydrogens (ID: RemoveExplicitH)
Clear Stereo (ID: ClearStereo)
Wedge Clean (ID: WedgeClean)
Mesomerize (ID: Mesomerize)
Tautomerize (ID: Tautomerize)
Add Explicit Hydrogens (ID: AddExplicitH)
Neutralize (ID: Neutralize)
Clean 2D (ID: Clean2D)


$$$$

  Mrv1812 02121911042D          

 17 16  0  0  0  0            999 V2000
    3.1858   -0.7296    0.0000 C   0  0  0  0  0  0  0  0  0  0  0  0
    2.7733   -0.0152    0.0000 O   0  0  0  0  0  0  0  0  0  0  0  0
    1.9483   -0.0152    0.0000 C   0  0  0  0  0  0  0  0  0  0  0  0
    1.5358    0.6993    0.0000 O   0  0  0  0  0  0  0  0  0  0  0  0
    0.7108    0.6993    0.0000 C   0  0  0  0  0  0  0  0  0  0  0  0
    1.5358   -0.7296    0.0000 O   0  0  0  0  0  0  0  0  0  0  0  0
    0.7108   -0.7296    0.0000 C   0  0  0  0  0  0  0  0  0  0  0  0
    2.4713   -1.1421    0.0000 H   0  0  0  0  0  0  0  0  0  0  0  0
    3.5983   -1.4441    0.0000 H   0  0  0  0  0  0  0  0  0  0  0  0
    3.9003   -0.3171    0.0000 H   0  0  0  0  0  0  0  0  0  0  0  0
    2.3608    0.6993    0.0000 H   0  0  0  0  0  0  0  0  0  0  0  0
    0.7108    1.5243    0.0000 H   0  0  0  0  0  0  0  0  0  0  0  0
   -0.1142    0.6993    0.0000 H   0  0  0  0  0  0  0  0  0  0  0  0
    0.7108   -0.1257    0.0000 H   0  0  0  0  0  0  0  0  0  0  0  0
   -0.0514   -0.4139    0.0000 H   0  0  0  0  0  0  0  0  0  0  0  0
    0.1274   -1.3130    0.0000 H   0  0  0  0  0  0  0  0  0  0  0  0
    1.0265   -1.4918    0.0000 H   0  0  0  0  0  0  0  0  0  0  0  0
  1  2  1  0  0  0  0
  2  3  1  0  0  0  0
  3  4  1  0  0  0  0
  4  5  1  0  0  0  0
  3  6  1  0  0  0  0
  6  7  1  0  0  0  0
  1  8  1  0  0  0  0
  1  9  1  0  0  0  0
  1 10  1  0  0  0  0
  3 11  1  0  0  0  0
  5 12  1  0  0  0  0
  5 13  1  0  0  0  0
  5 14  1  0  0  0  0
  7 15  1  0  0  0  0
  7 16  1  0  0  0  0
  7 17  1  0  0  0  0
M  END
>  <id_input>
5155

>  <InChIKey>
PYOKUURKVVELLB-UHFFFAOYSA-N

>  <substance_name>
trimethoxymethane

>  <casrn>
149-73-5

>  <Molecular weight>
106.12039947509766

>  <guideline>
OECD Guideline 404 (Acute Dermal Irritation / Corrosion)

>  <species>
rabbit

>  <type_of_coverage>
semiocclusive

>  <max_duration(hrs)>
4.0

>  <vehicle>
unchanged (no vehicle)

>  <edema/ erythema score>
0.0

>  <max_score>
4.0

>  <reversibility>
0.0

>  <Outcome>
0

>  <StandardizerResult>
Remove Explicit Hydrogens (ID: RemoveExplicitH)
Clear Stereo (ID: ClearStereo)
Wedge Clean (ID: WedgeClean)
Mesomerize (ID: Mesomerize)
Tautomerize (ID: Tautomerize)
Add Explicit Hydrogens (ID: AddExplicitH)
Neutralize (ID: Neutralize)
Clean 2D (ID: Clean2D)


$$$$

  Mrv1812 02121911042D          

 19 18  0  0  0  0            999 V2000
    0.0477   -0.0450    0.0000 C   0  0  0  0  0  0  0  0  0  0  0  0
    0.7622    0.3675    0.0000 C   0  0  0  0  0  0  0  0  0  0  0  0
    1.4767   -0.0450    0.0000 C   0  0  0  0  0  0  0  0  0  0  0  0
    2.1911    0.3675    0.0000 C   0  0  0  0  0  0  0  0  0  0  0  0
    2.1911    1.1925    0.0000 O   0  0  0  0  0  0  0  0  0  0  0  0
    2.9056   -0.0450    0.0000 C   0  0  0  0  0  0  0  0  0  0  0  0
    3.6201    0.3675    0.0000 O   0  0  0  0  0  0  0  0  0  0  0  0
   -0.3648    0.6695    0.0000 H   0  0  0  0  0  0  0  0  0  0  0  0
   -0.6668   -0.4575    0.0000 H   0  0  0  0  0  0  0  0  0  0  0  0
    0.4602   -0.7594    0.0000 H   0  0  0  0  0  0  0  0  0  0  0  0
    1.1324    1.1048    0.0000 H   0  0  0  0  0  0  0  0  0  0  0  0
    0.3919    1.1048    0.0000 H   0  0  0  0  0  0  0  0  0  0  0  0
    1.1064   -0.7822    0.0000 H   0  0  0  0  0  0  0  0  0  0  0  0
    1.8469   -0.7822    0.0000 H   0  0  0  0  0  0  0  0  0  0  0  0
    1.4767    0.7800    0.0000 H   0  0  0  0  0  0  0  0  0  0  0  0
    2.6036    1.9070    0.0000 H   0  0  0  0  0  0  0  0  0  0  0  0
    2.5353   -0.7822    0.0000 H   0  0  0  0  0  0  0  0  0  0  0  0
    3.2759   -0.7822    0.0000 H   0  0  0  0  0  0  0  0  0  0  0  0
    4.3345   -0.0450    0.0000 H   0  0  0  0  0  0  0  0  0  0  0  0
  1  2  1  0  0  0  0
  2  3  1  0  0  0  0
  3  4  1  0  0  0  0
  4  5  1  0  0  0  0
  4  6  1  0  0  0  0
  6  7  1  0  0  0  0
  1  8  1  0  0  0  0
  1  9  1  0  0  0  0
  1 10  1  0  0  0  0
  2 11  1  0  0  0  0
  2 12  1  0  0  0  0
  3 13  1  0  0  0  0
  3 14  1  0  0  0  0
  4 15  1  0  0  0  0
  5 16  1  0  0  0  0
  6 17  1  0  0  0  0
  6 18  1  0  0  0  0
  7 19  1  0  0  0  0
M  END
>  <id_input>
4772

>  <InChIKey>
WCVRQHFDJLLWFE-UHFFFAOYSA-N

>  <substance_name>
pentane-1,2-diol

>  <casrn>
5343-92-0

>  <Molecular weight>
104.1475830078125

>  <guideline>
OECD Guideline 404 (Acute Dermal Irritation / Corrosion)

>  <species>
rabbit

>  <type_of_coverage>
semiocclusive

>  <max_duration(hrs)>
4.0

>  <vehicle>
unchanged (no vehicle)

>  <edema/ erythema score>
0.0

>  <max_score>
4.0

>  <reversibility>
0.0

>  <Outcome>
0

>  <StandardizerResult>
Remove Explicit Hydrogens (ID: RemoveExplicitH)
Clear Stereo (ID: ClearStereo)
Wedge Clean (ID: WedgeClean)
Mesomerize (ID: Mesomerize)
Tautomerize (ID: Tautomerize)
Add Explicit Hydrogens (ID: AddExplicitH)
Neutralize (ID: Neutralize)
Clean 2D (ID: Clean2D)


$$$$

  Mrv1812 02121911042D          

 25 25  0  0  0  0            999 V2000
    3.4219   -0.0023    0.0000 C   0  0  0  0  0  0  0  0  0  0  0  0
    2.8088    0.5498    0.0000 C   0  0  0  0  0  0  0  0  0  0  0  0
    2.0242    0.2948    0.0000 C   0  0  0  0  0  0  0  0  0  0  0  0
    1.4111    0.8469    0.0000 C   0  0  0  0  0  0  0  0  0  0  0  0
    0.6265    0.5919    0.0000 N   0  0  0  0  0  0  0  0  0  0  0  0
   -0.0409    1.0768    0.0000 C   0  0  0  0  0  0  0  0  0  0  0  0
   -0.7084    0.5919    0.0000 C   0  0  0  0  0  0  0  0  0  0  0  0
   -0.4534   -0.1927    0.0000 C   0  0  0  0  0  0  0  0  0  0  0  0
    0.3716   -0.1927    0.0000 C   0  0  0  0  0  0  0  0  0  0  0  0
    0.8565   -0.8601    0.0000 O   0  0  0  0  0  0  0  0  0  0  0  0
    2.8699   -0.6154    0.0000 H   0  0  0  0  0  0  0  0  0  0  0  0
    4.0350   -0.5543    0.0000 H   0  0  0  0  0  0  0  0  0  0  0  0
    3.9740    0.6108    0.0000 H   0  0  0  0  0  0  0  0  0  0  0  0
    3.3243    1.1939    0.0000 H   0  0  0  0  0  0  0  0  0  0  0  0
    2.6000    1.3479    0.0000 H   0  0  0  0  0  0  0  0  0  0  0  0
    1.5088   -0.3493    0.0000 H   0  0  0  0  0  0  0  0  0  0  0  0
    2.2331   -0.5033    0.0000 H   0  0  0  0  0  0  0  0  0  0  0  0
    1.9266    1.4910    0.0000 H   0  0  0  0  0  0  0  0  0  0  0  0
    1.2022    1.6450    0.0000 H   0  0  0  0  0  0  0  0  0  0  0  0
    0.3464    1.8053    0.0000 H   0  0  0  0  0  0  0  0  0  0  0  0
   -0.4282    1.8053    0.0000 H   0  0  0  0  0  0  0  0  0  0  0  0
   -1.2815    1.1854    0.0000 H   0  0  0  0  0  0  0  0  0  0  0  0
   -1.5208    0.4487    0.0000 H   0  0  0  0  0  0  0  0  0  0  0  0
   -1.1949   -0.5544    0.0000 H   0  0  0  0  0  0  0  0  0  0  0  0
   -0.5683   -1.0097    0.0000 H   0  0  0  0  0  0  0  0  0  0  0  0
  1  2  1  0  0  0  0
  2  3  1  0  0  0  0
  3  4  1  0  0  0  0
  4  5  1  0  0  0  0
  6  5  1  0  0  0  0
  7  6  1  0  0  0  0
  8  7  1  0  0  0  0
  9  8  1  0  0  0  0
  9 10  2  0  0  0  0
  5  9  1  0  0  0  0
  1 11  1  0  0  0  0
  1 12  1  0  0  0  0
  1 13  1  0  0  0  0
  2 14  1  0  0  0  0
  2 15  1  0  0  0  0
  3 16  1  0  0  0  0
  3 17  1  0  0  0  0
  4 18  1  0  0  0  0
  4 19  1  0  0  0  0
  6 20  1  0  0  0  0
  6 21  1  0  0  0  0
  7 22  1  0  0  0  0
  7 23  1  0  0  0  0
  8 24  1  0  0  0  0
  8 25  1  0  0  0  0
M  END
>  <id_input>
1908

>  <InChIKey>
BNXZHVUCNYMNOS-UHFFFAOYSA-N

>  <substance_name>
1-butylpyrrolidin-2-one

>  <casrn>
3470-98-2

>  <Molecular weight>
141.21080017089844

>  <guideline>
OECD Guideline 404 (Acute Dermal Irritation / Corrosion)

>  <species>
rabbit

>  <type_of_coverage>
semiocclusive

>  <max_duration(hrs)>
4.0

>  <vehicle>
unchanged (no vehicle)

>  <edema/ erythema score>
1.0

>  <max_score>
1.0

>  <reversibility>
0.0

>  <Outcome>
0

>  <StandardizerResult>
Remove Explicit Hydrogens (ID: RemoveExplicitH)
Clear Stereo (ID: ClearStereo)
Wedge Clean (ID: WedgeClean)
Mesomerize (ID: Mesomerize)
Tautomerize (ID: Tautomerize)
Add Explicit Hydrogens (ID: AddExplicitH)
Neutralize (ID: Neutralize)
Clean 2D (ID: Clean2D)


$$$$

  Mrv1812 02121911042D          

173172  0  0  0  0            999 V2000
   -2.3386    4.0922    0.0000 C   0  0  0  0  0  0  0  0  0  0  0  0
   -1.6242    3.6797    0.0000 C   0  0  0  0  0  0  0  0  0  0  0  0
   -0.9097    4.0922    0.0000 C   0  0  0  0  0  0  0  0  0  0  0  0
   -0.1952    3.6797    0.0000 C   0  0  0  0  0  0  0  0  0  0  0  0
    0.5192    4.0922    0.0000 C   0  0  0  0  0  0  0  0  0  0  0  0
    1.2337    3.6797    0.0000 C   0  0  0  0  0  0  0  0  0  0  0  0
    1.9482    4.0922    0.0000 C   0  0  0  0  0  0  0  0  0  0  0  0
    2.6627    3.6797    0.0000 C   0  0  0  0  0  0  0  0  0  0  0  0
    3.3771    4.0922    0.0000 C   0  0  0  0  0  0  0  0  0  0  0  0
    4.0916    3.6797    0.0000 C   0  0  0  0  0  0  0  0  0  0  0  0
    4.8061    4.0922    0.0000 C   0  0  0  0  0  0  0  0  0  0  0  0
    5.5205    3.6797    0.0000 C   0  0  0  0  0  0  0  0  0  0  0  0
    6.2350    4.0922    0.0000 C   0  0  0  0  0  0  0  0  0  0  0  0
    6.9495    3.6797    0.0000 C   0  0  0  0  0  0  0  0  0  0  0  0
    7.6639    4.0922    0.0000 C   0  0  0  0  0  0  0  0  0  0  0  0
    8.3784    3.6797    0.0000 C   0  0  0  0  0  0  0  0  0  0  0  0
    9.0929    4.0922    0.0000 C   0  0  0  0  0  0  0  0  0  0  0  0
    9.8074    3.6797    0.0000 C   0  0  0  0  0  0  0  0  0  0  0  0
    9.8074    2.8547    0.0000 O   0  0  0  0  0  0  0  0  0  0  0  0
   10.5218    4.0922    0.0000 O   0  0  0  0  0  0  0  0  0  0  0  0
   11.2363    3.6797    0.0000 C   0  0  0  0  0  0  0  0  0  0  0  0
   11.9508    4.0922    0.0000 C   0  0  0  0  0  0  0  0  0  0  0  0
   12.6652    3.6797    0.0000 C   0  0  0  0  0  0  0  0  0  0  0  0
   13.3797    4.0922    0.0000 O   0  0  0  0  0  0  0  0  0  0  0  0
   14.0942    3.6797    0.0000 C   0  0  0  0  0  0  0  0  0  0  0  0
   14.0942    2.8547    0.0000 O   0  0  0  0  0  0  0  0  0  0  0  0
   14.8087    4.0922    0.0000 C   0  0  0  0  0  0  0  0  0  0  0  0
   15.5231    3.6797    0.0000 C   0  0  0  0  0  0  0  0  0  0  0  0
   16.2376    4.0922    0.0000 C   0  0  0  0  0  0  0  0  0  0  0  0
   16.9521    3.6797    0.0000 C   0  0  0  0  0  0  0  0  0  0  0  0
   17.6665    4.0922    0.0000 C   0  0  0  0  0  0  0  0  0  0  0  0
   18.3810    3.6797    0.0000 C   0  0  0  0  0  0  0  0  0  0  0  0
   19.0955    4.0922    0.0000 C   0  0  0  0  0  0  0  0  0  0  0  0
   19.8100    3.6797    0.0000 C   0  0  0  0  0  0  0  0  0  0  0  0
   20.5244    4.0922    0.0000 C   0  0  0  0  0  0  0  0  0  0  0  0
   21.2389    3.6797    0.0000 C   0  0  0  0  0  0  0  0  0  0  0  0
   21.9534    4.0922    0.0000 C   0  0  0  0  0  0  0  0  0  0  0  0
   22.6678    3.6797    0.0000 C   0  0  0  0  0  0  0  0  0  0  0  0
   23.3823    4.0922    0.0000 C   0  0  0  0  0  0  0  0  0  0  0  0
   24.0968    3.6797    0.0000 C   0  0  0  0  0  0  0  0  0  0  0  0
   24.8113    4.0922    0.0000 C   0  0  0  0  0  0  0  0  0  0  0  0
   25.5257    3.6797    0.0000 C   0  0  0  0  0  0  0  0  0  0  0  0
   26.2402    4.0922    0.0000 C   0  0  0  0  0  0  0  0  0  0  0  0
   11.9508    4.9172    0.0000 O   0  0  0  0  0  0  0  0  0  0  0  0
   11.2363    5.3297    0.0000 C   0  0  0  0  0  0  0  0  0  0  0  0
   10.5218    4.9172    0.0000 O   0  0  0  0  0  0  0  0  0  0  0  0
   11.2363    6.1547    0.0000 C   0  0  0  0  0  0  0  0  0  0  0  0
   10.5218    6.5672    0.0000 C   0  0  0  0  0  0  0  0  0  0  0  0
   10.5218    7.3922    0.0000 C   0  0  0  0  0  0  0  0  0  0  0  0
    9.8074    7.8047    0.0000 C   0  0  0  0  0  0  0  0  0  0  0  0
    9.8074    8.6297    0.0000 C   0  0  0  0  0  0  0  0  0  0  0  0
    9.0929    9.0422    0.0000 C   0  0  0  0  0  0  0  0  0  0  0  0
    9.0929    9.8672    0.0000 C   0  0  0  0  0  0  0  0  0  0  0  0
    8.3784   10.2797    0.0000 C   0  0  0  0  0  0  0  0  0  0  0  0
    8.3784   11.1047    0.0000 C   0  0  0  0  0  0  0  0  0  0  0  0
    7.6639   11.5172    0.0000 C   0  0  0  0  0  0  0  0  0  0  0  0
    7.6639   12.3422    0.0000 C   0  0  0  0  0  0  0  0  0  0  0  0
    6.9495   12.7547    0.0000 C   0  0  0  0  0  0  0  0  0  0  0  0
    6.9495   13.5797    0.0000 C   0  0  0  0  0  0  0  0  0  0  0  0
    6.2350   13.9922    0.0000 C   0  0  0  0  0  0  0  0  0  0  0  0
    6.2350   14.8172    0.0000 C   0  0  0  0  0  0  0  0  0  0  0  0
    5.5205   15.2297    0.0000 C   0  0  0  0  0  0  0  0  0  0  0  0
    5.5205   16.0547    0.0000 C   0  0  0  0  0  0  0  0  0  0  0  0
   -1.9261    4.8067    0.0000 H   0  0  0  0  0  0  0  0  0  0  0  0
   -3.0531    4.5047    0.0000 H   0  0  0  0  0  0  0  0  0  0  0  0
   -2.7511    3.3778    0.0000 H   0  0  0  0  0  0  0  0  0  0  0  0
   -1.9944    2.9425    0.0000 H   0  0  0  0  0  0  0  0  0  0  0  0
   -1.2539    2.9425    0.0000 H   0  0  0  0  0  0  0  0  0  0  0  0
   -0.5394    4.8295    0.0000 H   0  0  0  0  0  0  0  0  0  0  0  0
   -1.2800    4.8295    0.0000 H   0  0  0  0  0  0  0  0  0  0  0  0
   -0.5655    2.9425    0.0000 H   0  0  0  0  0  0  0  0  0  0  0  0
    0.1750    2.9425    0.0000 H   0  0  0  0  0  0  0  0  0  0  0  0
    0.8895    4.8295    0.0000 H   0  0  0  0  0  0  0  0  0  0  0  0
    0.1490    4.8295    0.0000 H   0  0  0  0  0  0  0  0  0  0  0  0
    0.8635    2.9425    0.0000 H   0  0  0  0  0  0  0  0  0  0  0  0
    1.6040    2.9425    0.0000 H   0  0  0  0  0  0  0  0  0  0  0  0
    2.3184    4.8295    0.0000 H   0  0  0  0  0  0  0  0  0  0  0  0
    1.5779    4.8295    0.0000 H   0  0  0  0  0  0  0  0  0  0  0  0
    2.2924    2.9425    0.0000 H   0  0  0  0  0  0  0  0  0  0  0  0
    3.0329    2.9425    0.0000 H   0  0  0  0  0  0  0  0  0  0  0  0
    3.7474    4.8295    0.0000 H   0  0  0  0  0  0  0  0  0  0  0  0
    3.0069    4.8295    0.0000 H   0  0  0  0  0  0  0  0  0  0  0  0
    3.7213    2.9425    0.0000 H   0  0  0  0  0  0  0  0  0  0  0  0
    4.4619    2.9425    0.0000 H   0  0  0  0  0  0  0  0  0  0  0  0
    5.1763    4.8295    0.0000 H   0  0  0  0  0  0  0  0  0  0  0  0
    4.4358    4.8295    0.0000 H   0  0  0  0  0  0  0  0  0  0  0  0
    5.1503    2.9425    0.0000 H   0  0  0  0  0  0  0  0  0  0  0  0
    5.8908    2.9425    0.0000 H   0  0  0  0  0  0  0  0  0  0  0  0
    6.6053    4.8295    0.0000 H   0  0  0  0  0  0  0  0  0  0  0  0
    5.8647    4.8295    0.0000 H   0  0  0  0  0  0  0  0  0  0  0  0
    6.5792    2.9425    0.0000 H   0  0  0  0  0  0  0  0  0  0  0  0
    7.3197    2.9425    0.0000 H   0  0  0  0  0  0  0  0  0  0  0  0
    8.0342    4.8295    0.0000 H   0  0  0  0  0  0  0  0  0  0  0  0
    7.2937    4.8295    0.0000 H   0  0  0  0  0  0  0  0  0  0  0  0
    8.0082    2.9425    0.0000 H   0  0  0  0  0  0  0  0  0  0  0  0
    8.7487    2.9425    0.0000 H   0  0  0  0  0  0  0  0  0  0  0  0
    9.4631    4.8295    0.0000 H   0  0  0  0  0  0  0  0  0  0  0  0
    8.7226    4.8295    0.0000 H   0  0  0  0  0  0  0  0  0  0  0  0
   10.8660    2.9425    0.0000 H   0  0  0  0  0  0  0  0  0  0  0  0
   11.6066    2.9425    0.0000 H   0  0  0  0  0  0  0  0  0  0  0  0
   11.9508    3.2672    0.0000 H   0  0  0  0  0  0  0  0  0  0  0  0
   12.8085    2.8673    0.0000 H   0  0  0  0  0  0  0  0  0  0  0  0
   13.2972    3.1494    0.0000 H   0  0  0  0  0  0  0  0  0  0  0  0
   15.1789    4.8295    0.0000 H   0  0  0  0  0  0  0  0  0  0  0  0
   14.4384    4.8295    0.0000 H   0  0  0  0  0  0  0  0  0  0  0  0
   15.1529    2.9425    0.0000 H   0  0  0  0  0  0  0  0  0  0  0  0
   15.8934    2.9425    0.0000 H   0  0  0  0  0  0  0  0  0  0  0  0
   16.6079    4.8295    0.0000 H   0  0  0  0  0  0  0  0  0  0  0  0
   15.8673    4.8295    0.0000 H   0  0  0  0  0  0  0  0  0  0  0  0
   16.5818    2.9425    0.0000 H   0  0  0  0  0  0  0  0  0  0  0  0
   17.3223    2.9425    0.0000 H   0  0  0  0  0  0  0  0  0  0  0  0
   18.0368    4.8295    0.0000 H   0  0  0  0  0  0  0  0  0  0  0  0
   17.2963    4.8295    0.0000 H   0  0  0  0  0  0  0  0  0  0  0  0
   18.0108    2.9425    0.0000 H   0  0  0  0  0  0  0  0  0  0  0  0
   18.7513    2.9425    0.0000 H   0  0  0  0  0  0  0  0  0  0  0  0
   19.4657    4.8295    0.0000 H   0  0  0  0  0  0  0  0  0  0  0  0
   18.7252    4.8295    0.0000 H   0  0  0  0  0  0  0  0  0  0  0  0
   19.4397    2.9425    0.0000 H   0  0  0  0  0  0  0  0  0  0  0  0
   20.1802    2.9425    0.0000 H   0  0  0  0  0  0  0  0  0  0  0  0
   20.8947    4.8295    0.0000 H   0  0  0  0  0  0  0  0  0  0  0  0
   20.1542    4.8295    0.0000 H   0  0  0  0  0  0  0  0  0  0  0  0
   20.8686    2.9425    0.0000 H   0  0  0  0  0  0  0  0  0  0  0  0
   21.6092    2.9425    0.0000 H   0  0  0  0  0  0  0  0  0  0  0  0
   22.3236    4.8295    0.0000 H   0  0  0  0  0  0  0  0  0  0  0  0
   21.5831    4.8295    0.0000 H   0  0  0  0  0  0  0  0  0  0  0  0
   22.2976    2.9425    0.0000 H   0  0  0  0  0  0  0  0  0  0  0  0
   23.0381    2.9425    0.0000 H   0  0  0  0  0  0  0  0  0  0  0  0
   23.7526    4.8295    0.0000 H   0  0  0  0  0  0  0  0  0  0  0  0
   23.0120    4.8295    0.0000 H   0  0  0  0  0  0  0  0  0  0  0  0
   23.7265    2.9425    0.0000 H   0  0  0  0  0  0  0  0  0  0  0  0
   24.4670    2.9425    0.0000 H   0  0  0  0  0  0  0  0  0  0  0  0
   25.1815    4.8295    0.0000 H   0  0  0  0  0  0  0  0  0  0  0  0
   24.4410    4.8295    0.0000 H   0  0  0  0  0  0  0  0  0  0  0  0
   25.1555    2.9425    0.0000 H   0  0  0  0  0  0  0  0  0  0  0  0
   25.8960    2.9425    0.0000 H   0  0  0  0  0  0  0  0  0  0  0  0
   26.6527    3.3778    0.0000 H   0  0  0  0  0  0  0  0  0  0  0  0
   26.9547    4.5047    0.0000 H   0  0  0  0  0  0  0  0  0  0  0  0
   25.8277    4.8067    0.0000 H   0  0  0  0  0  0  0  0  0  0  0  0
   12.0599    6.2027    0.0000 H   0  0  0  0  0  0  0  0  0  0  0  0
   11.6896    6.8440    0.0000 H   0  0  0  0  0  0  0  0  0  0  0  0
    9.6982    6.5193    0.0000 H   0  0  0  0  0  0  0  0  0  0  0  0
   10.0685    5.8780    0.0000 H   0  0  0  0  0  0  0  0  0  0  0  0
   11.3454    7.4402    0.0000 H   0  0  0  0  0  0  0  0  0  0  0  0
   10.9752    8.0815    0.0000 H   0  0  0  0  0  0  0  0  0  0  0  0
    8.9838    7.7568    0.0000 H   0  0  0  0  0  0  0  0  0  0  0  0
    9.3540    7.1155    0.0000 H   0  0  0  0  0  0  0  0  0  0  0  0
   10.6310    8.6777    0.0000 H   0  0  0  0  0  0  0  0  0  0  0  0
   10.2607    9.3190    0.0000 H   0  0  0  0  0  0  0  0  0  0  0  0
    8.2693    8.9943    0.0000 H   0  0  0  0  0  0  0  0  0  0  0  0
    8.6395    8.3530    0.0000 H   0  0  0  0  0  0  0  0  0  0  0  0
    9.9165    9.9152    0.0000 H   0  0  0  0  0  0  0  0  0  0  0  0
    9.5462   10.5565    0.0000 H   0  0  0  0  0  0  0  0  0  0  0  0
    7.5548   10.2318    0.0000 H   0  0  0  0  0  0  0  0  0  0  0  0
    7.9251    9.5905    0.0000 H   0  0  0  0  0  0  0  0  0  0  0  0
    9.2020   11.1527    0.0000 H   0  0  0  0  0  0  0  0  0  0  0  0
    8.8318   11.7940    0.0000 H   0  0  0  0  0  0  0  0  0  0  0  0
    6.8403   11.4693    0.0000 H   0  0  0  0  0  0  0  0  0  0  0  0
    7.2106   10.8280    0.0000 H   0  0  0  0  0  0  0  0  0  0  0  0
    8.4876   12.3902    0.0000 H   0  0  0  0  0  0  0  0  0  0  0  0
    8.1173   13.0315    0.0000 H   0  0  0  0  0  0  0  0  0  0  0  0
    6.1259   12.7068    0.0000 H   0  0  0  0  0  0  0  0  0  0  0  0
    6.4961   12.0655    0.0000 H   0  0  0  0  0  0  0  0  0  0  0  0
    7.7731   13.6277    0.0000 H   0  0  0  0  0  0  0  0  0  0  0  0
    7.4028   14.2690    0.0000 H   0  0  0  0  0  0  0  0  0  0  0  0
    5.4114   13.9443    0.0000 H   0  0  0  0  0  0  0  0  0  0  0  0
    5.7817   13.3030    0.0000 H   0  0  0  0  0  0  0  0  0  0  0  0
    7.0586   14.8652    0.0000 H   0  0  0  0  0  0  0  0  0  0  0  0
    6.6884   15.5065    0.0000 H   0  0  0  0  0  0  0  0  0  0  0  0
    4.6969   15.1818    0.0000 H   0  0  0  0  0  0  0  0  0  0  0  0
    5.0672   14.5405    0.0000 H   0  0  0  0  0  0  0  0  0  0  0  0
    6.3455   16.0547    0.0000 H   0  0  0  0  0  0  0  0  0  0  0  0
    5.5205   16.8797    0.0000 H   0  0  0  0  0  0  0  0  0  0  0  0
    4.6955   16.0547    0.0000 H   0  0  0  0  0  0  0  0  0  0  0  0
  1  2  1  0  0  0  0
  2  3  1  0  0  0  0
  3  4  1  0  0  0  0
  4  5  1  0  0  0  0
  5  6  1  0  0  0  0
  6  7  1  0  0  0  0
  7  8  1  0  0  0  0
  8  9  1  0  0  0  0
  9 10  1  0  0  0  0
 10 11  1  0  0  0  0
 11 12  1  0  0  0  0
 12 13  1  0  0  0  0
 13 14  1  0  0  0  0
 14 15  1  0  0  0  0
 15 16  1  0  0  0  0
 16 17  1  0  0  0  0
 17 18  1  0  0  0  0
 18 19  2  0  0  0  0
 18 20  1  0  0  0  0
 20 21  1  0  0  0  0
 21 22  1  0  0  0  0
 22 23  1  0  0  0  0
 23 24  1  0  0  0  0
 24 25  1  0  0  0  0
 25 26  2  0  0  0  0
 25 27  1  0  0  0  0
 27 28  1  0  0  0  0
 28 29  1  0  0  0  0
 29 30  1  0  0  0  0
 30 31  1  0  0  0  0
 31 32  1  0  0  0  0
 32 33  1  0  0  0  0
 33 34  1  0  0  0  0
 34 35  1  0  0  0  0
 35 36  1  0  0  0  0
 36 37  1  0  0  0  0
 37 38  1  0  0  0  0
 38 39  1  0  0  0  0
 39 40  1  0  0  0  0
 40 41  1  0  0  0  0
 41 42  1  0  0  0  0
 42 43  1  0  0  0  0
 22 44  1  0  0  0  0
 44 45  1  0  0  0  0
 45 46  2  0  0  0  0
 45 47  1  0  0  0  0
 47 48  1  0  0  0  0
 48 49  1  0  0  0  0
 49 50  1  0  0  0  0
 50 51  1  0  0  0  0
 51 52  1  0  0  0  0
 52 53  1  0  0  0  0
 53 54  1  0  0  0  0
 54 55  1  0  0  0  0
 55 56  1  0  0  0  0
 56 57  1  0  0  0  0
 57 58  1  0  0  0  0
 58 59  1  0  0  0  0
 59 60  1  0  0  0  0
 60 61  1  0  0  0  0
 61 62  1  0  0  0  0
 62 63  1  0  0  0  0
  1 64  1  0  0  0  0
  1 65  1  0  0  0  0
  1 66  1  0  0  0  0
  2 67  1  0  0  0  0
  2 68  1  0  0  0  0
  3 69  1  0  0  0  0
  3 70  1  0  0  0  0
  4 71  1  0  0  0  0
  4 72  1  0  0  0  0
  5 73  1  0  0  0  0
  5 74  1  0  0  0  0
  6 75  1  0  0  0  0
  6 76  1  0  0  0  0
  7 77  1  0  0  0  0
  7 78  1  0  0  0  0
  8 79  1  0  0  0  0
  8 80  1  0  0  0  0
  9 81  1  0  0  0  0
  9 82  1  0  0  0  0
 10 83  1  0  0  0  0
 10 84  1  0  0  0  0
 11 85  1  0  0  0  0
 11 86  1  0  0  0  0
 12 87  1  0  0  0  0
 12 88  1  0  0  0  0
 13 89  1  0  0  0  0
 13 90  1  0  0  0  0
 14 91  1  0  0  0  0
 14 92  1  0  0  0  0
 15 93  1  0  0  0  0
 15 94  1  0  0  0  0
 16 95  1  0  0  0  0
 16 96  1  0  0  0  0
 17 97  1  0  0  0  0
 17 98  1  0  0  0  0
 21 99  1  0  0  0  0
 21100  1  0  0  0  0
 22101  1  0  0  0  0
 23102  1  0  0  0  0
 23103  1  0  0  0  0
 27104  1  0  0  0  0
 27105  1  0  0  0  0
 28106  1  0  0  0  0
 28107  1  0  0  0  0
 29108  1  0  0  0  0
 29109  1  0  0  0  0
 30110  1  0  0  0  0
 30111  1  0  0  0  0
 31112  1  0  0  0  0
 31113  1  0  0  0  0
 32114  1  0  0  0  0
 32115  1  0  0  0  0
 33116  1  0  0  0  0
 33117  1  0  0  0  0
 34118  1  0  0  0  0
 34119  1  0  0  0  0
 35120  1  0  0  0  0
 35121  1  0  0  0  0
 36122  1  0  0  0  0
 36123  1  0  0  0  0
 37124  1  0  0  0  0
 37125  1  0  0  0  0
 38126  1  0  0  0  0
 38127  1  0  0  0  0
 39128  1  0  0  0  0
 39129  1  0  0  0  0
 40130  1  0  0  0  0
 40131  1  0  0  0  0
 41132  1  0  0  0  0
 41133  1  0  0  0  0
 42134  1  0  0  0  0
 42135  1  0  0  0  0
 43136  1  0  0  0  0
 43137  1  0  0  0  0
 43138  1  0  0  0  0
 47139  1  0  0  0  0
 47140  1  0  0  0  0
 48141  1  0  0  0  0
 48142  1  0  0  0  0
 49143  1  0  0  0  0
 49144  1  0  0  0  0
 50145  1  0  0  0  0
 50146  1  0  0  0  0
 51147  1  0  0  0  0
 51148  1  0  0  0  0
 52149  1  0  0  0  0
 52150  1  0  0  0  0
 53151  1  0  0  0  0
 53152  1  0  0  0  0
 54153  1  0  0  0  0
 54154  1  0  0  0  0
 55155  1  0  0  0  0
 55156  1  0  0  0  0
 56157  1  0  0  0  0
 56158  1  0  0  0  0
 57159  1  0  0  0  0
 57160  1  0  0  0  0
 58161  1  0  0  0  0
 58162  1  0  0  0  0
 59163  1  0  0  0  0
 59164  1  0  0  0  0
 60165  1  0  0  0  0
 60166  1  0  0  0  0
 61167  1  0  0  0  0
 61168  1  0  0  0  0
 62169  1  0  0  0  0
 62170  1  0  0  0  0
 63171  1  0  0  0  0
 63172  1  0  0  0  0
 63173  1  0  0  0  0
M  END
>  <id_input>
1762

>  <InChIKey>
DCXXMTOCNZCJGO-UHFFFAOYSA-N

>  <substance_name>
1,3-bis(octadecanoyloxy)propan-2-yl octadecanoate

>  <casrn>
555-43-1

>  <Molecular weight>
891.479736328125

>  <guideline>
OECD Guideline 404 (Acute Dermal Irritation / Corrosion)

>  <species>
rabbit

>  <type_of_coverage>
semiocclusive

>  <max_duration(hrs)>
4.0

>  <vehicle>
unchanged (no vehicle)

>  <edema/ erythema score>
0.0

>  <max_score>
4.0

>  <reversibility>
0.0

>  <Outcome>
0

>  <StandardizerResult>
Remove Explicit Hydrogens (ID: RemoveExplicitH)
Clear Stereo (ID: ClearStereo)
Wedge Clean (ID: WedgeClean)
Mesomerize (ID: Mesomerize)
Tautomerize (ID: Tautomerize)
Add Explicit Hydrogens (ID: AddExplicitH)
Neutralize (ID: Neutralize)
Clean 2D (ID: Clean2D)


$$$$

  Mrv1812 02121911042D          

 18 18  0  0  0  0            999 V2000
    1.4396    1.2683    0.0000 O   0  0  0  0  0  0  0  0  0  0  0  0
    0.7946    0.7539    0.0000 C   0  0  0  0  0  0  0  0  0  0  0  0
    0.0513    1.1118    0.0000 C   0  0  0  0  0  0  0  0  0  0  0  0
   -0.6920    0.7539    0.0000 C   0  0  0  0  0  0  0  0  0  0  0  0
   -0.8756   -0.0504    0.0000 C   0  0  0  0  0  0  0  0  0  0  0  0
   -0.3612   -0.6954    0.0000 C   0  0  0  0  0  0  0  0  0  0  0  0
    0.4638   -0.6954    0.0000 C   0  0  0  0  0  0  0  0  0  0  0  0
    0.9782   -0.0504    0.0000 O   0  0  0  0  0  0  0  0  0  0  0  0
    0.4093    1.8551    0.0000 H   0  0  0  0  0  0  0  0  0  0  0  0
   -0.3067    1.8551    0.0000 H   0  0  0  0  0  0  0  0  0  0  0  0
   -1.0500    1.4972    0.0000 H   0  0  0  0  0  0  0  0  0  0  0  0
   -1.4963    0.9375    0.0000 H   0  0  0  0  0  0  0  0  0  0  0  0
   -1.6799    0.1331    0.0000 H   0  0  0  0  0  0  0  0  0  0  0  0
   -1.5206   -0.5648    0.0000 H   0  0  0  0  0  0  0  0  0  0  0  0
   -1.0062   -1.2098    0.0000 H   0  0  0  0  0  0  0  0  0  0  0  0
   -0.3612   -1.5204    0.0000 H   0  0  0  0  0  0  0  0  0  0  0  0
    0.4638   -1.5204    0.0000 H   0  0  0  0  0  0  0  0  0  0  0  0
    1.1088   -1.2098    0.0000 H   0  0  0  0  0  0  0  0  0  0  0  0
  1  2  2  0  0  0  0
  3  2  1  0  0  0  0
  4  3  1  0  0  0  0
  5  4  1  0  0  0  0
  6  5  1  0  0  0  0
  7  6  1  0  0  0  0
  8  7  1  0  0  0  0
  2  8  1  0  0  0  0
  3  9  1  0  0  0  0
  3 10  1  0  0  0  0
  4 11  1  0  0  0  0
  4 12  1  0  0  0  0
  5 13  1  0  0  0  0
  5 14  1  0  0  0  0
  6 15  1  0  0  0  0
  6 16  1  0  0  0  0
  7 17  1  0  0  0  0
  7 18  1  0  0  0  0
M  END
>  <id_input>
4736

>  <InChIKey>
PAPBSGBWRJIAAV-UHFFFAOYSA-N

>  <substance_name>
oxepan-2-one

>  <casrn>
502-44-3

>  <Molecular weight>
114.14240264892578

>  <guideline>
OECD Guideline 404 (Acute Dermal Irritation / Corrosion)

>  <species>
rabbit

>  <type_of_coverage>
occlusive

>  <max_duration(hrs)>
4.0

>  <vehicle>
unchanged (no vehicle)

>  <edema/ erythema score>
0.0

>  <max_score>
4.0

>  <reversibility>
0.0

>  <Outcome>
0

>  <StandardizerResult>
Remove Explicit Hydrogens (ID: RemoveExplicitH)
Clear Stereo (ID: ClearStereo)
Wedge Clean (ID: WedgeClean)
Mesomerize (ID: Mesomerize)
Tautomerize (ID: Tautomerize)
Add Explicit Hydrogens (ID: AddExplicitH)
Neutralize (ID: Neutralize)
Clean 2D (ID: Clean2D)


$$$$

  Mrv1812 02121911042D          

164163  0  0  0  0            999 V2000
   -1.9211   -3.3214    0.0000 C   0  0  0  0  0  0  0  0  0  0  0  0
   -1.2066   -2.9089    0.0000 C   0  0  0  0  0  0  0  0  0  0  0  0
   -0.4921   -3.3214    0.0000 C   0  0  0  0  0  0  0  0  0  0  0  0
    0.2223   -2.9089    0.0000 C   0  0  0  0  0  0  0  0  0  0  0  0
    0.9368   -3.3214    0.0000 C   0  0  0  0  0  0  0  0  0  0  0  0
    1.6513   -2.9089    0.0000 C   0  0  0  0  0  0  0  0  0  0  0  0
    2.3657   -3.3214    0.0000 C   0  0  0  0  0  0  0  0  0  0  0  0
    3.0802   -2.9089    0.0000 C   0  0  0  0  0  0  0  0  0  0  0  0
    3.7947   -3.3214    0.0000 C   0  0  0  0  0  0  0  0  0  0  0  0
    4.5092   -2.9089    0.0000 C   0  0  0  0  0  0  0  0  0  0  0  0
    5.2236   -3.3214    0.0000 C   0  0  0  0  0  0  0  0  0  0  0  0
    5.9381   -2.9089    0.0000 C   0  0  0  0  0  0  0  0  0  0  0  0
    6.6526   -3.3214    0.0000 C   0  0  0  0  0  0  0  0  0  0  0  0
    7.3670   -2.9089    0.0000 C   0  0  0  0  0  0  0  0  0  0  0  0
    8.0815   -3.3214    0.0000 C   0  0  0  0  0  0  0  0  0  0  0  0
    8.7960   -2.9089    0.0000 C   0  0  0  0  0  0  0  0  0  0  0  0
    9.5105   -3.3214    0.0000 C   0  0  0  0  0  0  0  0  0  0  0  0
   10.2249   -2.9089    0.0000 C   0  0  0  0  0  0  0  0  0  0  0  0
   10.9394   -3.3214    0.0000 C   0  0  0  0  0  0  0  0  0  0  0  0
   11.6539   -2.9089    0.0000 C   0  0  0  0  0  0  0  0  0  0  0  0
   12.3683   -3.3214    0.0000 C   0  0  0  0  0  0  0  0  0  0  0  0
   13.0828   -2.9089    0.0000 C   0  0  0  0  0  0  0  0  0  0  0  0
   13.7973   -3.3214    0.0000 O   0  0  0  0  0  0  0  0  0  0  0  0
   14.5118   -2.9089    0.0000 C   0  0  0  0  0  0  0  0  0  0  0  0
   14.5118   -2.0839    0.0000 O   0  0  0  0  0  0  0  0  0  0  0  0
   15.2262   -3.3214    0.0000 C   0  0  0  0  0  0  0  0  0  0  0  0
   15.9407   -2.9089    0.0000 C   0  0  0  0  0  0  0  0  0  0  0  0
   16.6552   -3.3214    0.0000 C   0  0  0  0  0  0  0  0  0  0  0  0
   17.3696   -2.9089    0.0000 C   0  0  0  0  0  0  0  0  0  0  0  0
   18.0841   -3.3214    0.0000 C   0  0  0  0  0  0  0  0  0  0  0  0
   18.7986   -2.9089    0.0000 C   0  0  0  0  0  0  0  0  0  0  0  0
   19.5130   -3.3214    0.0000 C   0  0  0  0  0  0  0  0  0  0  0  0
   20.2275   -2.9089    0.0000 C   0  0  0  0  0  0  0  0  0  0  0  0
   20.9420   -3.3214    0.0000 C   0  0  0  0  0  0  0  0  0  0  0  0
   20.9420   -4.1464    0.0000 O   0  0  0  0  0  0  0  0  0  0  0  0
   21.6565   -2.9089    0.0000 O   0  0  0  0  0  0  0  0  0  0  0  0
   22.3709   -3.3214    0.0000 C   0  0  0  0  0  0  0  0  0  0  0  0
   23.0854   -2.9089    0.0000 C   0  0  0  0  0  0  0  0  0  0  0  0
   23.7999   -3.3214    0.0000 C   0  0  0  0  0  0  0  0  0  0  0  0
   24.5143   -2.9089    0.0000 C   0  0  0  0  0  0  0  0  0  0  0  0
   25.2288   -3.3214    0.0000 C   0  0  0  0  0  0  0  0  0  0  0  0
   25.9433   -2.9089    0.0000 C   0  0  0  0  0  0  0  0  0  0  0  0
   26.6578   -3.3214    0.0000 C   0  0  0  0  0  0  0  0  0  0  0  0
   27.3722   -2.9089    0.0000 C   0  0  0  0  0  0  0  0  0  0  0  0
   28.0867   -3.3214    0.0000 C   0  0  0  0  0  0  0  0  0  0  0  0
   28.8012   -2.9089    0.0000 C   0  0  0  0  0  0  0  0  0  0  0  0
   29.5156   -3.3214    0.0000 C   0  0  0  0  0  0  0  0  0  0  0  0
   30.2301   -2.9089    0.0000 C   0  0  0  0  0  0  0  0  0  0  0  0
   30.9446   -3.3214    0.0000 C   0  0  0  0  0  0  0  0  0  0  0  0
   31.6591   -2.9089    0.0000 C   0  0  0  0  0  0  0  0  0  0  0  0
   32.3735   -3.3214    0.0000 C   0  0  0  0  0  0  0  0  0  0  0  0
   33.0880   -2.9089    0.0000 C   0  0  0  0  0  0  0  0  0  0  0  0
   33.8025   -3.3214    0.0000 C   0  0  0  0  0  0  0  0  0  0  0  0
   34.5169   -2.9089    0.0000 C   0  0  0  0  0  0  0  0  0  0  0  0
   35.2314   -3.3214    0.0000 C   0  0  0  0  0  0  0  0  0  0  0  0
   35.9459   -2.9089    0.0000 C   0  0  0  0  0  0  0  0  0  0  0  0
   36.6604   -3.3214    0.0000 C   0  0  0  0  0  0  0  0  0  0  0  0
   37.3748   -2.9089    0.0000 C   0  0  0  0  0  0  0  0  0  0  0  0
   -2.3336   -2.6069    0.0000 H   0  0  0  0  0  0  0  0  0  0  0  0
   -2.6356   -3.7339    0.0000 H   0  0  0  0  0  0  0  0  0  0  0  0
   -1.5086   -4.0359    0.0000 H   0  0  0  0  0  0  0  0  0  0  0  0
   -0.8364   -2.1717    0.0000 H   0  0  0  0  0  0  0  0  0  0  0  0
   -1.5769   -2.1717    0.0000 H   0  0  0  0  0  0  0  0  0  0  0  0
   -0.8624   -4.0586    0.0000 H   0  0  0  0  0  0  0  0  0  0  0  0
   -0.1219   -4.0586    0.0000 H   0  0  0  0  0  0  0  0  0  0  0  0
    0.5926   -2.1717    0.0000 H   0  0  0  0  0  0  0  0  0  0  0  0
   -0.1479   -2.1717    0.0000 H   0  0  0  0  0  0  0  0  0  0  0  0
    0.5665   -4.0586    0.0000 H   0  0  0  0  0  0  0  0  0  0  0  0
    1.3071   -4.0586    0.0000 H   0  0  0  0  0  0  0  0  0  0  0  0
    2.0215   -2.1717    0.0000 H   0  0  0  0  0  0  0  0  0  0  0  0
    1.2810   -2.1717    0.0000 H   0  0  0  0  0  0  0  0  0  0  0  0
    1.9955   -4.0586    0.0000 H   0  0  0  0  0  0  0  0  0  0  0  0
    2.7360   -4.0586    0.0000 H   0  0  0  0  0  0  0  0  0  0  0  0
    3.4505   -2.1717    0.0000 H   0  0  0  0  0  0  0  0  0  0  0  0
    2.7100   -2.1717    0.0000 H   0  0  0  0  0  0  0  0  0  0  0  0
    3.4244   -4.0586    0.0000 H   0  0  0  0  0  0  0  0  0  0  0  0
    4.1649   -4.0586    0.0000 H   0  0  0  0  0  0  0  0  0  0  0  0
    4.8794   -2.1717    0.0000 H   0  0  0  0  0  0  0  0  0  0  0  0
    4.1389   -2.1717    0.0000 H   0  0  0  0  0  0  0  0  0  0  0  0
    4.8534   -4.0586    0.0000 H   0  0  0  0  0  0  0  0  0  0  0  0
    5.5939   -4.0586    0.0000 H   0  0  0  0  0  0  0  0  0  0  0  0
    6.3084   -2.1717    0.0000 H   0  0  0  0  0  0  0  0  0  0  0  0
    5.5678   -2.1717    0.0000 H   0  0  0  0  0  0  0  0  0  0  0  0
    6.2823   -4.0586    0.0000 H   0  0  0  0  0  0  0  0  0  0  0  0
    7.0228   -4.0586    0.0000 H   0  0  0  0  0  0  0  0  0  0  0  0
    7.7373   -2.1717    0.0000 H   0  0  0  0  0  0  0  0  0  0  0  0
    6.9968   -2.1717    0.0000 H   0  0  0  0  0  0  0  0  0  0  0  0
    7.7113   -4.0586    0.0000 H   0  0  0  0  0  0  0  0  0  0  0  0
    8.4518   -4.0586    0.0000 H   0  0  0  0  0  0  0  0  0  0  0  0
    9.1662   -2.1717    0.0000 H   0  0  0  0  0  0  0  0  0  0  0  0
    8.4257   -2.1717    0.0000 H   0  0  0  0  0  0  0  0  0  0  0  0
    9.1402   -4.0586    0.0000 H   0  0  0  0  0  0  0  0  0  0  0  0
    9.8807   -4.0586    0.0000 H   0  0  0  0  0  0  0  0  0  0  0  0
   10.5952   -2.1717    0.0000 H   0  0  0  0  0  0  0  0  0  0  0  0
    9.8547   -2.1717    0.0000 H   0  0  0  0  0  0  0  0  0  0  0  0
   10.5691   -4.0586    0.0000 H   0  0  0  0  0  0  0  0  0  0  0  0
   11.3097   -4.0586    0.0000 H   0  0  0  0  0  0  0  0  0  0  0  0
   12.0241   -2.1717    0.0000 H   0  0  0  0  0  0  0  0  0  0  0  0
   11.2836   -2.1717    0.0000 H   0  0  0  0  0  0  0  0  0  0  0  0
   11.9981   -4.0586    0.0000 H   0  0  0  0  0  0  0  0  0  0  0  0
   12.7386   -4.0586    0.0000 H   0  0  0  0  0  0  0  0  0  0  0  0
   13.4531   -2.1717    0.0000 H   0  0  0  0  0  0  0  0  0  0  0  0
   12.7125   -2.1717    0.0000 H   0  0  0  0  0  0  0  0  0  0  0  0
   14.8560   -4.0586    0.0000 H   0  0  0  0  0  0  0  0  0  0  0  0
   15.5965   -4.0586    0.0000 H   0  0  0  0  0  0  0  0  0  0  0  0
   16.3110   -2.1717    0.0000 H   0  0  0  0  0  0  0  0  0  0  0  0
   15.5704   -2.1717    0.0000 H   0  0  0  0  0  0  0  0  0  0  0  0
   16.2849   -4.0586    0.0000 H   0  0  0  0  0  0  0  0  0  0  0  0
   17.0254   -4.0586    0.0000 H   0  0  0  0  0  0  0  0  0  0  0  0
   17.7399   -2.1717    0.0000 H   0  0  0  0  0  0  0  0  0  0  0  0
   16.9994   -2.1717    0.0000 H   0  0  0  0  0  0  0  0  0  0  0  0
   17.7138   -4.0586    0.0000 H   0  0  0  0  0  0  0  0  0  0  0  0
   18.4544   -4.0586    0.0000 H   0  0  0  0  0  0  0  0  0  0  0  0
   19.1688   -2.1717    0.0000 H   0  0  0  0  0  0  0  0  0  0  0  0
   18.4283   -2.1717    0.0000 H   0  0  0  0  0  0  0  0  0  0  0  0
   19.1428   -4.0586    0.0000 H   0  0  0  0  0  0  0  0  0  0  0  0
   19.8833   -4.0586    0.0000 H   0  0  0  0  0  0  0  0  0  0  0  0
   20.5978   -2.1717    0.0000 H   0  0  0  0  0  0  0  0  0  0  0  0
   19.8573   -2.1717    0.0000 H   0  0  0  0  0  0  0  0  0  0  0  0
   22.0007   -4.0586    0.0000 H   0  0  0  0  0  0  0  0  0  0  0  0
   22.7412   -4.0586    0.0000 H   0  0  0  0  0  0  0  0  0  0  0  0
   23.4557   -2.1717    0.0000 H   0  0  0  0  0  0  0  0  0  0  0  0
   22.7151   -2.1717    0.0000 H   0  0  0  0  0  0  0  0  0  0  0  0
   23.4296   -4.0586    0.0000 H   0  0  0  0  0  0  0  0  0  0  0  0
   24.1701   -4.0586    0.0000 H   0  0  0  0  0  0  0  0  0  0  0  0
   24.8846   -2.1717    0.0000 H   0  0  0  0  0  0  0  0  0  0  0  0
   24.1441   -2.1717    0.0000 H   0  0  0  0  0  0  0  0  0  0  0  0
   24.8586   -4.0586    0.0000 H   0  0  0  0  0  0  0  0  0  0  0  0
   25.5991   -4.0586    0.0000 H   0  0  0  0  0  0  0  0  0  0  0  0
   26.3135   -2.1717    0.0000 H   0  0  0  0  0  0  0  0  0  0  0  0
   25.5730   -2.1717    0.0000 H   0  0  0  0  0  0  0  0  0  0  0  0
   26.2875   -4.0586    0.0000 H   0  0  0  0  0  0  0  0  0  0  0  0
   27.0280   -4.0586    0.0000 H   0  0  0  0  0  0  0  0  0  0  0  0
   27.7425   -2.1717    0.0000 H   0  0  0  0  0  0  0  0  0  0  0  0
   27.0020   -2.1717    0.0000 H   0  0  0  0  0  0  0  0  0  0  0  0
   27.7164   -4.0586    0.0000 H   0  0  0  0  0  0  0  0  0  0  0  0
   28.4570   -4.0586    0.0000 H   0  0  0  0  0  0  0  0  0  0  0  0
   29.1714   -2.1717    0.0000 H   0  0  0  0  0  0  0  0  0  0  0  0
   28.4309   -2.1717    0.0000 H   0  0  0  0  0  0  0  0  0  0  0  0
   29.1454   -4.0586    0.0000 H   0  0  0  0  0  0  0  0  0  0  0  0
   29.8859   -4.0586    0.0000 H   0  0  0  0  0  0  0  0  0  0  0  0
   30.6004   -2.1717    0.0000 H   0  0  0  0  0  0  0  0  0  0  0  0
   29.8599   -2.1717    0.0000 H   0  0  0  0  0  0  0  0  0  0  0  0
   30.5743   -4.0586    0.0000 H   0  0  0  0  0  0  0  0  0  0  0  0
   31.3148   -4.0586    0.0000 H   0  0  0  0  0  0  0  0  0  0  0  0
   32.0293   -2.1717    0.0000 H   0  0  0  0  0  0  0  0  0  0  0  0
   31.2888   -2.1717    0.0000 H   0  0  0  0  0  0  0  0  0  0  0  0
   32.0033   -4.0586    0.0000 H   0  0  0  0  0  0  0  0  0  0  0  0
   32.7438   -4.0586    0.0000 H   0  0  0  0  0  0  0  0  0  0  0  0
   33.4583   -2.1717    0.0000 H   0  0  0  0  0  0  0  0  0  0  0  0
   32.7177   -2.1717    0.0000 H   0  0  0  0  0  0  0  0  0  0  0  0
   33.4322   -4.0586    0.0000 H   0  0  0  0  0  0  0  0  0  0  0  0
   34.1727   -4.0586    0.0000 H   0  0  0  0  0  0  0  0  0  0  0  0
   34.8872   -2.1717    0.0000 H   0  0  0  0  0  0  0  0  0  0  0  0
   34.1467   -2.1717    0.0000 H   0  0  0  0  0  0  0  0  0  0  0  0
   34.8611   -4.0586    0.0000 H   0  0  0  0  0  0  0  0  0  0  0  0
   35.6017   -4.0586    0.0000 H   0  0  0  0  0  0  0  0  0  0  0  0
   36.3161   -2.1717    0.0000 H   0  0  0  0  0  0  0  0  0  0  0  0
   35.5756   -2.1717    0.0000 H   0  0  0  0  0  0  0  0  0  0  0  0
   36.2901   -4.0586    0.0000 H   0  0  0  0  0  0  0  0  0  0  0  0
   37.0306   -4.0586    0.0000 H   0  0  0  0  0  0  0  0  0  0  0  0
   37.7873   -3.6234    0.0000 H   0  0  0  0  0  0  0  0  0  0  0  0
   38.0893   -2.4964    0.0000 H   0  0  0  0  0  0  0  0  0  0  0  0
   36.9623   -2.1944    0.0000 H   0  0  0  0  0  0  0  0  0  0  0  0
  1  2  1  0  0  0  0
  2  3  1  0  0  0  0
  3  4  1  0  0  0  0
  4  5  1  0  0  0  0
  5  6  1  0  0  0  0
  6  7  1  0  0  0  0
  7  8  1  0  0  0  0
  8  9  1  0  0  0  0
  9 10  1  0  0  0  0
 10 11  1  0  0  0  0
 11 12  1  0  0  0  0
 12 13  1  0  0  0  0
 13 14  1  0  0  0  0
 14 15  1  0  0  0  0
 15 16  1  0  0  0  0
 16 17  1  0  0  0  0
 17 18  1  0  0  0  0
 18 19  1  0  0  0  0
 19 20  1  0  0  0  0
 20 21  1  0  0  0  0
 21 22  1  0  0  0  0
 22 23  1  0  0  0  0
 23 24  1  0  0  0  0
 24 25  2  0  0  0  0
 24 26  1  0  0  0  0
 26 27  1  0  0  0  0
 27 28  1  0  0  0  0
 28 29  1  0  0  0  0
 29 30  1  0  0  0  0
 30 31  1  0  0  0  0
 31 32  1  0  0  0  0
 32 33  1  0  0  0  0
 33 34  1  0  0  0  0
 34 35  2  0  0  0  0
 34 36  1  0  0  0  0
 36 37  1  0  0  0  0
 37 38  1  0  0  0  0
 38 39  1  0  0  0  0
 39 40  1  0  0  0  0
 40 41  1  0  0  0  0
 41 42  1  0  0  0  0
 42 43  1  0  0  0  0
 43 44  1  0  0  0  0
 44 45  1  0  0  0  0
 45 46  1  0  0  0  0
 46 47  1  0  0  0  0
 47 48  1  0  0  0  0
 48 49  1  0  0  0  0
 49 50  1  0  0  0  0
 50 51  1  0  0  0  0
 51 52  1  0  0  0  0
 52 53  1  0  0  0  0
 53 54  1  0  0  0  0
 54 55  1  0  0  0  0
 55 56  1  0  0  0  0
 56 57  1  0  0  0  0
 57 58  1  0  0  0  0
  1 59  1  0  0  0  0
  1 60  1  0  0  0  0
  1 61  1  0  0  0  0
  2 62  1  0  0  0  0
  2 63  1  0  0  0  0
  3 64  1  0  0  0  0
  3 65  1  0  0  0  0
  4 66  1  0  0  0  0
  4 67  1  0  0  0  0
  5 68  1  0  0  0  0
  5 69  1  0  0  0  0
  6 70  1  0  0  0  0
  6 71  1  0  0  0  0
  7 72  1  0  0  0  0
  7 73  1  0  0  0  0
  8 74  1  0  0  0  0
  8 75  1  0  0  0  0
  9 76  1  0  0  0  0
  9 77  1  0  0  0  0
 10 78  1  0  0  0  0
 10 79  1  0  0  0  0
 11 80  1  0  0  0  0
 11 81  1  0  0  0  0
 12 82  1  0  0  0  0
 12 83  1  0  0  0  0
 13 84  1  0  0  0  0
 13 85  1  0  0  0  0
 14 86  1  0  0  0  0
 14 87  1  0  0  0  0
 15 88  1  0  0  0  0
 15 89  1  0  0  0  0
 16 90  1  0  0  0  0
 16 91  1  0  0  0  0
 17 92  1  0  0  0  0
 17 93  1  0  0  0  0
 18 94  1  0  0  0  0
 18 95  1  0  0  0  0
 19 96  1  0  0  0  0
 19 97  1  0  0  0  0
 20 98  1  0  0  0  0
 20 99  1  0  0  0  0
 21100  1  0  0  0  0
 21101  1  0  0  0  0
 22102  1  0  0  0  0
 22103  1  0  0  0  0
 26104  1  0  0  0  0
 26105  1  0  0  0  0
 27106  1  0  0  0  0
 27107  1  0  0  0  0
 28108  1  0  0  0  0
 28109  1  0  0  0  0
 29110  1  0  0  0  0
 29111  1  0  0  0  0
 30112  1  0  0  0  0
 30113  1  0  0  0  0
 31114  1  0  0  0  0
 31115  1  0  0  0  0
 32116  1  0  0  0  0
 32117  1  0  0  0  0
 33118  1  0  0  0  0
 33119  1  0  0  0  0
 37120  1  0  0  0  0
 37121  1  0  0  0  0
 38122  1  0  0  0  0
 38123  1  0  0  0  0
 39124  1  0  0  0  0
 39125  1  0  0  0  0
 40126  1  0  0  0  0
 40127  1  0  0  0  0
 41128  1  0  0  0  0
 41129  1  0  0  0  0
 42130  1  0  0  0  0
 42131  1  0  0  0  0
 43132  1  0  0  0  0
 43133  1  0  0  0  0
 44134  1  0  0  0  0
 44135  1  0  0  0  0
 45136  1  0  0  0  0
 45137  1  0  0  0  0
 46138  1  0  0  0  0
 46139  1  0  0  0  0
 47140  1  0  0  0  0
 47141  1  0  0  0  0
 48142  1  0  0  0  0
 48143  1  0  0  0  0
 49144  1  0  0  0  0
 49145  1  0  0  0  0
 50146  1  0  0  0  0
 50147  1  0  0  0  0
 51148  1  0  0  0  0
 51149  1  0  0  0  0
 52150  1  0  0  0  0
 52151  1  0  0  0  0
 53152  1  0  0  0  0
 53153  1  0  0  0  0
 54154  1  0  0  0  0
 54155  1  0  0  0  0
 55156  1  0  0  0  0
 55157  1  0  0  0  0
 56158  1  0  0  0  0
 56159  1  0  0  0  0
 57160  1  0  0  0  0
 57161  1  0  0  0  0
 58162  1  0  0  0  0
 58163  1  0  0  0  0
 58164  1  0  0  0  0
M  END
>  <id_input>
1697

>  <InChIKey>
PRNNATBNXILRSR-UHFFFAOYSA-N

>  <substance_name>
1,10-didocosyl decanedioate

>  <casrn>
42233-75-0

>  <Molecular weight>
819.4170532226562

>  <guideline>
OECD Guideline 404 (Acute Dermal Irritation / Corrosion)

>  <species>
rabbit

>  <type_of_coverage>
semiocclusive

>  <max_duration(hrs)>
4.0

>  <vehicle>
unchanged (no vehicle)

>  <edema/ erythema score>
0.0

>  <max_score>
4.0

>  <reversibility>
0.0

>  <Outcome>
0

>  <StandardizerResult>
Remove Explicit Hydrogens (ID: RemoveExplicitH)
Clear Stereo (ID: ClearStereo)
Wedge Clean (ID: WedgeClean)
Mesomerize (ID: Mesomerize)
Tautomerize (ID: Tautomerize)
Add Explicit Hydrogens (ID: AddExplicitH)
Neutralize (ID: Neutralize)
Clean 2D (ID: Clean2D)


$$$$

  Mrv1812 02121911042D          

 56 55  0  0  0  0            999 V2000
   -0.0130    0.3904    0.0000 C   0  0  0  0  0  0  0  0  0  0  0  0
    0.7015   -0.0221    0.0000 C   0  0  0  0  0  0  0  0  0  0  0  0
    1.4160    0.3904    0.0000 C   0  0  0  0  0  0  0  0  0  0  0  0
    2.1304   -0.0221    0.0000 C   0  0  0  0  0  0  0  0  0  0  0  0
    2.8449    0.3904    0.0000 C   0  0  0  0  0  0  0  0  0  0  0  0
    3.5594   -0.0221    0.0000 C   0  0  0  0  0  0  0  0  0  0  0  0
    4.2739    0.3904    0.0000 C   0  0  0  0  0  0  0  0  0  0  0  0
    4.9883   -0.0221    0.0000 C   0  0  0  0  0  0  0  0  0  0  0  0
    5.7028    0.3904    0.0000 C   0  0  0  0  0  0  0  0  0  0  0  0
    6.4173   -0.0221    0.0000 C   0  0  0  0  0  0  0  0  0  0  0  0
    7.1317    0.3904    0.0000 C   0  0  0  0  0  0  0  0  0  0  0  0
    7.8462   -0.0221    0.0000 C   0  0  0  0  0  0  0  0  0  0  0  0
    8.5607    0.3904    0.0000 C   0  0  0  0  0  0  0  0  0  0  0  0
    9.2752   -0.0221    0.0000 C   0  0  0  0  0  0  0  0  0  0  0  0
    9.9896    0.3904    0.0000 C   0  0  0  0  0  0  0  0  0  0  0  0
   10.7041   -0.0221    0.0000 C   0  0  0  0  0  0  0  0  0  0  0  0
   11.4186    0.3904    0.0000 C   0  0  0  0  0  0  0  0  0  0  0  0
   12.1330   -0.0221    0.0000 C   0  0  0  0  0  0  0  0  0  0  0  0
   12.8475    0.3904    0.0000 O   0  0  0  0  0  0  0  0  0  0  0  0
   12.1330   -0.8471    0.0000 O   0  0  0  0  0  0  0  0  0  0  0  0
    0.3995    1.1049    0.0000 H   0  0  0  0  0  0  0  0  0  0  0  0
   -0.7274    0.8029    0.0000 H   0  0  0  0  0  0  0  0  0  0  0  0
   -0.4255   -0.3241    0.0000 H   0  0  0  0  0  0  0  0  0  0  0  0
    0.3312   -0.7593    0.0000 H   0  0  0  0  0  0  0  0  0  0  0  0
    1.0718   -0.7593    0.0000 H   0  0  0  0  0  0  0  0  0  0  0  0
    1.7862    1.1276    0.0000 H   0  0  0  0  0  0  0  0  0  0  0  0
    1.0457    1.1276    0.0000 H   0  0  0  0  0  0  0  0  0  0  0  0
    1.7602   -0.7593    0.0000 H   0  0  0  0  0  0  0  0  0  0  0  0
    2.5007   -0.7593    0.0000 H   0  0  0  0  0  0  0  0  0  0  0  0
    3.2152    1.1276    0.0000 H   0  0  0  0  0  0  0  0  0  0  0  0
    2.4747    1.1276    0.0000 H   0  0  0  0  0  0  0  0  0  0  0  0
    3.1891   -0.7593    0.0000 H   0  0  0  0  0  0  0  0  0  0  0  0
    3.9296   -0.7593    0.0000 H   0  0  0  0  0  0  0  0  0  0  0  0
    4.6441    1.1276    0.0000 H   0  0  0  0  0  0  0  0  0  0  0  0
    3.9036    1.1276    0.0000 H   0  0  0  0  0  0  0  0  0  0  0  0
    4.6181   -0.7593    0.0000 H   0  0  0  0  0  0  0  0  0  0  0  0
    5.3586   -0.7593    0.0000 H   0  0  0  0  0  0  0  0  0  0  0  0
    6.0731    1.1276    0.0000 H   0  0  0  0  0  0  0  0  0  0  0  0
    5.3325    1.1276    0.0000 H   0  0  0  0  0  0  0  0  0  0  0  0
    6.0470   -0.7593    0.0000 H   0  0  0  0  0  0  0  0  0  0  0  0
    6.7875   -0.7593    0.0000 H   0  0  0  0  0  0  0  0  0  0  0  0
    7.5020    1.1276    0.0000 H   0  0  0  0  0  0  0  0  0  0  0  0
    6.7615    1.1276    0.0000 H   0  0  0  0  0  0  0  0  0  0  0  0
    7.4760   -0.7593    0.0000 H   0  0  0  0  0  0  0  0  0  0  0  0
    8.2165   -0.7593    0.0000 H   0  0  0  0  0  0  0  0  0  0  0  0
    8.9309    1.1276    0.0000 H   0  0  0  0  0  0  0  0  0  0  0  0
    8.1904    1.1276    0.0000 H   0  0  0  0  0  0  0  0  0  0  0  0
    8.9049   -0.7593    0.0000 H   0  0  0  0  0  0  0  0  0  0  0  0
    9.6454   -0.7593    0.0000 H   0  0  0  0  0  0  0  0  0  0  0  0
   10.3599    1.1276    0.0000 H   0  0  0  0  0  0  0  0  0  0  0  0
    9.6194    1.1276    0.0000 H   0  0  0  0  0  0  0  0  0  0  0  0
   10.3338   -0.7593    0.0000 H   0  0  0  0  0  0  0  0  0  0  0  0
   11.0744   -0.7593    0.0000 H   0  0  0  0  0  0  0  0  0  0  0  0
   11.7888    1.1276    0.0000 H   0  0  0  0  0  0  0  0  0  0  0  0
   11.0483    1.1276    0.0000 H   0  0  0  0  0  0  0  0  0  0  0  0
   13.5620   -0.0221    0.0000 H   0  0  0  0  0  0  0  0  0  0  0  0
  1  2  1  0  0  0  0
  2  3  1  0  0  0  0
  3  4  1  0  0  0  0
  4  5  1  0  0  0  0
  5  6  1  0  0  0  0
  6  7  1  0  0  0  0
  7  8  1  0  0  0  0
  8  9  1  0  0  0  0
  9 10  1  0  0  0  0
 10 11  1  0  0  0  0
 11 12  1  0  0  0  0
 12 13  1  0  0  0  0
 13 14  1  0  0  0  0
 14 15  1  0  0  0  0
 15 16  1  0  0  0  0
 16 17  1  0  0  0  0
 17 18  1  0  0  0  0
 18 19  1  0  0  0  0
 18 20  2  0  0  0  0
  1 21  1  0  0  0  0
  1 22  1  0  0  0  0
  1 23  1  0  0  0  0
  2 24  1  0  0  0  0
  2 25  1  0  0  0  0
  3 26  1  0  0  0  0
  3 27  1  0  0  0  0
  4 28  1  0  0  0  0
  4 29  1  0  0  0  0
  5 30  1  0  0  0  0
  5 31  1  0  0  0  0
  6 32  1  0  0  0  0
  6 33  1  0  0  0  0
  7 34  1  0  0  0  0
  7 35  1  0  0  0  0
  8 36  1  0  0  0  0
  8 37  1  0  0  0  0
  9 38  1  0  0  0  0
  9 39  1  0  0  0  0
 10 40  1  0  0  0  0
 10 41  1  0  0  0  0
 11 42  1  0  0  0  0
 11 43  1  0  0  0  0
 12 44  1  0  0  0  0
 12 45  1  0  0  0  0
 13 46  1  0  0  0  0
 13 47  1  0  0  0  0
 14 48  1  0  0  0  0
 14 49  1  0  0  0  0
 15 50  1  0  0  0  0
 15 51  1  0  0  0  0
 16 52  1  0  0  0  0
 16 53  1  0  0  0  0
 17 54  1  0  0  0  0
 17 55  1  0  0  0  0
 19 56  1  0  0  0  0
M  END
>  <id_input>
2545, 4714

>  <InChIKey>
QIQXTHQIDYTFRH-UHFFFAOYSA-N

>  <substance_name>
2-methylheptadecanoic acid

>  <casrn>
30399-84-9

>  <Molecular weight>
284.47723388671875

>  <guideline>
OECD Guideline 404 (Acute Dermal Irritation / Corrosion)

>  <species>
rabbit

>  <type_of_coverage>
semiocclusive

>  <max_duration(hrs)>
14.0

>  <vehicle>
unchanged (no vehicle)

>  <edema/ erythema score>
0.6

>  <max_score>
4.0

>  <reversibility>
0.0

>  <Outcome>
0

>  <StandardizerResult>
Remove Explicit Hydrogens (ID: RemoveExplicitH)
Clear Stereo (ID: ClearStereo)
Wedge Clean (ID: WedgeClean)
Mesomerize (ID: Mesomerize)
Tautomerize (ID: Tautomerize)
Add Explicit Hydrogens (ID: AddExplicitH)
Neutralize (ID: Neutralize)
Clean 2D (ID: Clean2D)


$$$$
